ProjectFiles/HECO/DSSfiles/LinesMikilua_keep_upgrade.dss
! Script for LinesMikilua.dss

! LINE DEFINITIONS
New Line.BB_258064 Bus1=DEV_258083.1 Bus2=DEV_258183.1 phases=1 Linecode=lc1 Length=2.000000 units=ft !overhead line
New Line.BB_258067 Bus1=DEV_258175.1 Bus2=DEV_258084.1 phases=1 Linecode=lc1 Length=2.000000 units=ft !overhead line
New Line.BB_258070 Bus1=DEV_258082.1 Bus2=DEV_258185.1 phases=1 Linecode=lc1 Length=2.000000 units=ft !overhead line
New Line.BB_258073 Bus1=DEV_258074.1 Bus2=DEV_258195.1 phases=1 Linecode=lc1 Length=2.000000 units=ft !overhead line
New Line.BB_258077 Bus1=DEV_258078.1 Bus2=DEV_258191.1 phases=1 Linecode=lc1 Length=2.000000 units=ft !overhead line
New Line.BB_258080 Bus1=DEV_258081.1 Bus2=DEV_258181.1 phases=1 Linecode=lc1 Length=2.000000 units=ft !overhead line
New Line.BB_258153 Bus1=DEV_258173.1 Bus2=DEV_258152.1 phases=1 Linecode=lc1 Length=2.000000 units=ft !overhead line
New Line.BB_258202 Bus1=DEV_258210.1 Bus2=DEV_258211.1 phases=1 Linecode=lc1 Length=2.000000 units=ft !overhead line
New Line.BB_258797 Bus1=DEV_258793.1 Bus2=DEV_258894.1 phases=1 Linecode=lc1 Length=2.000000 units=ft !overhead line
New Line.BB_258803 Bus1=DEV_258813.1 Bus2=DEV_258887.1 phases=1 Linecode=lc1 Length=2.000000 units=ft !overhead line
New Line.BB_258805 Bus1=DEV_258881.1 Bus2=DEV_258818.1 phases=1 Linecode=lc1 Length=2.000000 units=ft !overhead line
New Line.BB_258824 Bus1=DEV_258825.1 Bus2=DEV_258823.1 phases=1 Linecode=lc1 Length=2.000000 units=ft !overhead line
New Line.BB_258838 Bus1=DEV_258839.1 Bus2=DEV_258897.1 phases=1 Linecode=lc1 Length=2.000000 units=ft !overhead line
New Line.BB_258899 Bus1=DEV_258807.1 Bus2=DEV_258885.1 phases=1 Linecode=lc1 Length=2.000000 units=ft !overhead line
New Line.BB_259014 Bus1=DEV_259020.1.2.3 Bus2=DEV_259186.1.2.3 phases=3 Linecode=lc2 Length=2.000000 units=ft !overhead line
New Line.BB_259030 Bus1=NODE_613672.1.2.3 Bus2=DEV_258057.1.2.3 phases=3 Linecode=lc2 Length=2.000000 units=ft !overhead line
New Line.BB_259031 Bus1=DEV_259046.1 Bus2=DEV_259145.1 phases=1 Linecode=lc1 Length=2.000000 units=ft !overhead line
New Line.BB_259033 Bus1=DEV_259149.1 Bus2=DEV_259034.1 phases=1 Linecode=lc1 Length=2.000000 units=ft !overhead line
New Line.BB_259037 Bus1=DEV_259151.1 Bus2=DEV_259038.1 phases=1 Linecode=lc1 Length=2.000000 units=ft !overhead line
New Line.BB_259041 Bus1=DEV_259042.1 Bus2=DEV_259153.1 phases=1 Linecode=lc1 Length=2.000000 units=ft !overhead line
New Line.BB_259044 Bus1=DEV_259143.1 Bus2=DEV_259045.1 phases=1 Linecode=lc1 Length=2.000000 units=ft !overhead line
New Line.BB_259160 Bus1=DEV_259162.1 Bus2=DEV_259161.1 phases=1 Linecode=lc1 Length=2.000000 units=ft !overhead line
New Line.BB_259166 Bus1=DEV_259167.1 Bus2=DEV_259168.1 phases=1 Linecode=lc1 Length=2.000000 units=ft !overhead line
New Line.BB_259171 Bus1=DEV_259173.1 Bus2=DEV_259172.1 phases=1 Linecode=lc1 Length=2.000000 units=ft !overhead line
New Line.BB_259176 Bus1=DEV_259177.1 Bus2=DEV_259178.1 phases=1 Linecode=lc1 Length=2.000000 units=ft !overhead line
New Line.BB_259185 Bus1=DEV_259050.1.2.3 Bus2=NODE_30049816.1.2.3 phases=3 Linecode=lc2 Length=2.000000 units=ft !overhead line
New Line.BB_262469 Bus1=DEV_262522.3 Bus2=DEV_262470.3 phases=1 Linecode=lc1 Length=2.000000 units=ft !overhead line
New Line.BB_263527 Bus1=DEV_263529.1.2.3 Bus2=DEV_263528.1.2.3 phases=3 Linecode=lc2 Length=2.000000 units=ft !overhead line
New Line.BB_263551 Bus1=DEV_263917.3 Bus2=DEV_263554.3 phases=1 Linecode=lc1 Length=2.000000 units=ft !overhead line
New Line.BB_263552 Bus1=DEV_263909.3 Bus2=DEV_263557.3 phases=1 Linecode=lc1 Length=2.000000 units=ft !overhead line
New Line.BB_263625 Bus1=DEV_263626.1 Bus2=DEV_263913.1 phases=1 Linecode=lc1 Length=2.000000 units=ft !overhead line
New Line.BB_263629 Bus1=DEV_263630.1 Bus2=DEV_263905.1 phases=1 Linecode=lc1 Length=2.000000 units=ft !overhead line
New Line.BB_263786 Bus1=DEV_263668.3 Bus2=DEV_263881.3 phases=1 Linecode=lc1 Length=2.000000 units=ft !overhead line
New Line.BB_263787 Bus1=DEV_263672.3 Bus2=DEV_263883.3 phases=1 Linecode=lc1 Length=2.000000 units=ft !overhead line
New Line.BB_263788 Bus1=DEV_263678.3 Bus2=DEV_263885.3 phases=1 Linecode=lc1 Length=2.000000 units=ft !overhead line
New Line.BB_263789 Bus1=DEV_263685.3 Bus2=DEV_263879.3 phases=1 Linecode=lc1 Length=2.000000 units=ft !overhead line
New Line.BB_263790 Bus1=DEV_263553.3 Bus2=DEV_263915.3 phases=1 Linecode=lc1 Length=2.000000 units=ft !overhead line
New Line.BB_263791 Bus1=DEV_263555.3 Bus2=DEV_263919.3 phases=1 Linecode=lc1 Length=2.000000 units=ft !overhead line
New Line.BB_263792 Bus1=DEV_263920.3 Bus2=DEV_263556.3 phases=1 Linecode=lc1 Length=2.000000 units=ft !overhead line
New Line.BB_263793 Bus1=DEV_263634.1 Bus2=DEV_263717.1 phases=1 Linecode=lc1 Length=2.000000 units=ft !overhead line
New Line.BB_263794 Bus1=DEV_263638.1 Bus2=DEV_263903.1 phases=1 Linecode=lc1 Length=2.000000 units=ft !overhead line
New Line.BB_263795 Bus1=DEV_263640.1 Bus2=DEV_263907.1 phases=1 Linecode=lc1 Length=2.000000 units=ft !overhead line
New Line.BB_263796 Bus1=DEV_263655.2 Bus2=DEV_263720.2 phases=1 Linecode=lc1 Length=2.000000 units=ft !overhead line
New Line.BB_263797 Bus1=DEV_263892.2 Bus2=DEV_263652.2 phases=1 Linecode=lc1 Length=2.000000 units=ft !overhead line
New Line.BB_263798 Bus1=DEV_263657.2 Bus2=DEV_263901.2 phases=1 Linecode=lc1 Length=2.000000 units=ft !overhead line
New Line.BB_263799 Bus1=DEV_263897.1 Bus2=DEV_263644.1 phases=1 Linecode=lc1 Length=2.000000 units=ft !overhead line
New Line.BB_263800 Bus1=DEV_263663.2 Bus2=DEV_263899.2 phases=1 Linecode=lc1 Length=2.000000 units=ft !overhead line
New Line.BB_263801 Bus1=DEV_263689.3 Bus2=DEV_263690.3 phases=1 Linecode=lc1 Length=2.000000 units=ft !overhead line
New Line.BB_263802 Bus1=DEV_263694.3 Bus2=DEV_263871.3 phases=1 Linecode=lc1 Length=2.000000 units=ft !overhead line
New Line.BB_263803 Bus1=DEV_263877.3 Bus2=DEV_263680.3 phases=1 Linecode=lc1 Length=2.000000 units=ft !overhead line
New Line.BB_263804 Bus1=DEV_263696.3 Bus2=DEV_263873.3 phases=1 Linecode=lc1 Length=2.000000 units=ft !overhead line
New Line.BB_263805 Bus1=DEV_263698.3 Bus2=DEV_263875.3 phases=1 Linecode=lc1 Length=2.000000 units=ft !overhead line
New Line.BB_263806 Bus1=DEV_263701.3 Bus2=DEV_263865.3 phases=1 Linecode=lc1 Length=2.000000 units=ft !overhead line
New Line.BB_263807 Bus1=DEV_263707.3 Bus2=DEV_263867.3 phases=1 Linecode=lc1 Length=2.000000 units=ft !overhead line
New Line.BB_263808 Bus1=DEV_263716.3 Bus2=DEV_263863.3 phases=1 Linecode=lc1 Length=2.000000 units=ft !overhead line
New Line.BB_263809 Bus1=DEV_263710.3 Bus2=DEV_263869.3 phases=1 Linecode=lc1 Length=2.000000 units=ft !overhead line
New Line.BB_263817 Bus1=DEV_263911.1 Bus2=DEV_263621.1 phases=1 Linecode=lc1 Length=2.000000 units=ft !overhead line
New Line.BB_263823 Bus1=DEV_263895.2 Bus2=DEV_263622.2 phases=1 Linecode=lc1 Length=2.000000 units=ft !overhead line
New Line.BB_263824 Bus1=NODE_5011599.1.2.3 Bus2=DEV_263842.1.2.3 phases=3 Linecode=lc2 Length=2.000000 units=ft !overhead line
New Line.BB_263829 Bus1=NODE_5011570.1.2.3 Bus2=DEV_263840.1.2.3 phases=3 Linecode=lc2 Length=2.000000 units=ft !overhead line
New Line.BB_263833 Bus1=DEV_263922.1.2.3 Bus2=DEV_263923.1.2.3 phases=3 Linecode=lc2 Length=2.000000 units=ft !overhead line
New Line.BB_263888 Bus1=DEV_263889.2 Bus2=DEV_263887.2 phases=1 Linecode=lc1 Length=2.000000 units=ft !overhead line
New Line.BB_264037 Bus1=DEV_264039.2 Bus2=DEV_264038.2 phases=1 Linecode=lc1 Length=2.000000 units=ft !overhead line
New Line.BB_264116 Bus1=DEV_264112.3 Bus2=DEV_264113.3 phases=1 Linecode=lc1 Length=2.000000 units=ft !overhead line
New Line.BB_264119 Bus1=DEV_264110.1 Bus2=DEV_264111.1 phases=1 Linecode=lc1 Length=2.000000 units=ft !overhead line
New Line.BB_264132 Bus1=DEV_264133.1 Bus2=DEV_264131.1 phases=1 Linecode=lc1 Length=2.000000 units=ft !overhead line
New Line.BB_264986 Bus1=DEV_264985.1 Bus2=DEV_264984.1 phases=1 Linecode=lc1 Length=2.000000 units=ft !overhead line
New Line.BB_264987 Bus1=DEV_264981.1 Bus2=DEV_264980.1 phases=1 Linecode=lc1 Length=2.000000 units=ft !overhead line
New Line.BB_265164 Bus1=DEV_265173.1.2.3 Bus2=DEV_265174.1.2.3 phases=3 Linecode=lc2 Length=2.000000 units=ft !overhead line
New Line.BB_51045896 Bus1=DEV_51045897.1 Bus2=DEV_51045898.1 phases=1 Linecode=lc1 Length=2.000000 units=ft !overhead line
New Line.BB_51045964 Bus1=DEV_51045965.3 Bus2=DEV_51045966.3 phases=1 Linecode=lc1 Length=2.000000 units=ft !overhead line
New Line.BB_51045975 Bus1=DEV_51045976.3 Bus2=DEV_51045977.3 phases=1 Linecode=lc1 Length=2.000000 units=ft !overhead line
New Line.BB_51045982 Bus1=DEV_51045983.3 Bus2=DEV_51045984.3 phases=1 Linecode=lc1 Length=2.000000 units=ft !overhead line
New Line.BB_51045990 Bus1=DEV_51045991.2 Bus2=DEV_51045992.2 phases=1 Linecode=lc1 Length=2.000000 units=ft !overhead line
New Line.BB_51045998 Bus1=DEV_51045999.2 Bus2=DEV_51046000.2 phases=1 Linecode=lc1 Length=2.000000 units=ft !overhead line
New Line.BB_51046005 Bus1=DEV_51046006.2 Bus2=DEV_51046007.2 phases=1 Linecode=lc1 Length=2.000000 units=ft !overhead line
New Line.BB_51046012 Bus1=DEV_51046013.2 Bus2=DEV_51046014.2 phases=1 Linecode=lc1 Length=2.000000 units=ft !overhead line
New Line.BB_51046018 Bus1=DEV_51046019.2 Bus2=DEV_51046020.2 phases=1 Linecode=lc1 Length=2.000000 units=ft !overhead line
New Line.BB_51046030 Bus1=DEV_51046031.2 Bus2=DEV_51046032.2 phases=1 Linecode=lc1 Length=2.000000 units=ft !overhead line
New Line.BB_51046037 Bus1=DEV_51046038.2 Bus2=DEV_51046039.2 phases=1 Linecode=lc1 Length=2.000000 units=ft !overhead line
New Line.BB_51046044 Bus1=DEV_51046045.3 Bus2=DEV_51046046.3 phases=1 Linecode=lc1 Length=2.000000 units=ft !overhead line
New Line.BB_51054581 Bus1=DEV_51054582.1 Bus2=DEV_51054583.1 phases=1 Linecode=lc1 Length=2.000000 units=ft !overhead line
New Line.BB_51067432 Bus1=DEV_51067433.1 Bus2=DEV_51067434.1 phases=1 Linecode=lc1 Length=2.000000 units=ft !overhead line
New Line.BB_51118371 Bus1=DEV_51118372.1.2.3 Bus2=DEV_51118373.1.2.3 phases=3 Linecode=lc2 Length=2.000000 units=ft !overhead line
New Line.BB_51118539 Bus1=DEV_51118540.1.2.3 Bus2=DEV_51118541.1.2.3 phases=3 Linecode=lc2 Length=2.000000 units=ft !overhead line
New Line.BB_51159904 Bus1=DEV_51159905.1.2.3 Bus2=DEV_51159906.1.2.3 phases=3 Linecode=lc2 Length=2.000000 units=ft !overhead line
New Line.BB_51159923 Bus1=DEV_51159924.1.2.3 Bus2=DEV_51159925.1.2.3 phases=3 Linecode=lc2 Length=2.000000 units=ft !overhead line
New Line.BB_51189818 Bus1=DEV_51189819.1.2.3 Bus2=DEV_51189820.1.2.3 phases=3 Linecode=lc2 Length=2.000000 units=ft !overhead line
New Line.DEV_258055_613672 Bus1=DEV_258055.1 Bus2=NODE_613672.1 phases=1 Linecode=lc3 Length=5.000000 units=ft !overhead line
New Line.DEV_258057_258060 Bus1=DEV_258057.1.2.3 Bus2=DEV_258060.1.2.3 phases=3 Linecode=lc4 Length=5.000000 units=ft !overhead line
New Line.DEV_259015_259020 Bus1=DEV_259015.1.2.3 Bus2=DEV_259020.1.2.3 phases=3 Linecode=lc4 Length=5.000000 units=ft !overhead line
New Line.DEV_259016_259186 Bus1=DEV_259016.1.2.3 Bus2=DEV_259186.1.2.3 phases=3 Linecode=lc4 Length=5.000000 units=ft !overhead line
New Line.DEV_259023_613672 Bus1=DEV_259023.2 Bus2=NODE_613672.2 phases=1 Linecode=lc3 Length=5.000000 units=ft !overhead line
New Line.DEV_259025_613672 Bus1=DEV_259025.3 Bus2=NODE_613672.3 phases=1 Linecode=lc3 Length=5.000000 units=ft !overhead line
New Line.DEV_259026_613672 Bus1=DEV_259026.1 Bus2=NODE_613672.1 phases=1 Linecode=lc3 Length=5.000000 units=ft !overhead line
New Line.DEV_259027_613672 Bus1=DEV_259027.2 Bus2=NODE_613672.2 phases=1 Linecode=lc3 Length=5.000000 units=ft !overhead line
New Line.DEV_259028_613672 Bus1=DEV_259028.3 Bus2=NODE_613672.3 phases=1 Linecode=lc3 Length=5.000000 units=ft !overhead line
New Line.DEV_259048_30049816 Bus1=DEV_259048.1 Bus2=NODE_30049816.1 phases=1 Linecode=lc3 Length=5.000000 units=ft !overhead line
New Line.DEV_259049_30049816 Bus1=DEV_259049.2 Bus2=NODE_30049816.2 phases=1 Linecode=lc3 Length=5.000000 units=ft !overhead line
New Line.DEV_259050_259159 Bus1=DEV_259050.1.2.3 Bus2=DEV_259159.1.2.3 phases=3 Linecode=lc4 Length=5.000000 units=ft !overhead line
New Line.DEV_259051_30049816 Bus1=DEV_259051.2 Bus2=NODE_30049816.2 phases=1 Linecode=lc3 Length=5.000000 units=ft !overhead line
New Line.DEV_259052_30049816 Bus1=DEV_259052.1 Bus2=NODE_30049816.1 phases=1 Linecode=lc3 Length=5.000000 units=ft !overhead line
New Line.DEV_259157_30049816 Bus1=DEV_259157.3 Bus2=NODE_30049816.3 phases=1 Linecode=lc3 Length=5.000000 units=ft !overhead line
New Line.DEV_259158_30049816 Bus1=DEV_259158.3 Bus2=NODE_30049816.3 phases=1 Linecode=lc3 Length=5.000000 units=ft !overhead line
New Line.DEV_263528_263530 Bus1=DEV_263528.1.2.3 Bus2=DEV_263530.1.2.3 phases=3 Linecode=lc4 Length=5.000000 units=ft !overhead line
New Line.DEV_263529_263531 Bus1=DEV_263529.1.2.3 Bus2=DEV_263531.1.2.3 phases=3 Linecode=lc4 Length=5.000000 units=ft !overhead line
New Line.DEV_263784_5011570 Bus1=DEV_263784.3 Bus2=NODE_5011570.3 phases=1 Linecode=lc3 Length=5.000000 units=ft !overhead line
New Line.DEV_263785_5011570 Bus1=DEV_263785.3 Bus2=NODE_5011570.3 phases=1 Linecode=lc3 Length=5.000000 units=ft !overhead line
New Line.DEV_263811_5011570 Bus1=DEV_263811.1 Bus2=NODE_5011570.1 phases=1 Linecode=lc3 Length=5.000000 units=ft !overhead line
New Line.DEV_263812_5011570 Bus1=DEV_263812.2 Bus2=NODE_5011570.2 phases=1 Linecode=lc3 Length=5.000000 units=ft !overhead line
New Line.DEV_263813_5011570 Bus1=DEV_263813.2 Bus2=NODE_5011570.2 phases=1 Linecode=lc3 Length=5.000000 units=ft !overhead line
New Line.DEV_263814_5011570 Bus1=DEV_263814.1 Bus2=NODE_5011570.1 phases=1 Linecode=lc3 Length=5.000000 units=ft !overhead line
New Line.DEV_263815_5011599 Bus1=DEV_263815.3 Bus2=NODE_5011599.3 phases=1 Linecode=lc3 Length=5.000000 units=ft !overhead line
New Line.DEV_263816_5011599 Bus1=DEV_263816.1 Bus2=NODE_5011599.1 phases=1 Linecode=lc3 Length=5.000000 units=ft !overhead line
New Line.DEV_263818_5011599 Bus1=DEV_263818.2 Bus2=NODE_5011599.2 phases=1 Linecode=lc3 Length=5.000000 units=ft !overhead line
New Line.DEV_263819_5011599 Bus1=DEV_263819.3 Bus2=NODE_5011599.3 phases=1 Linecode=lc3 Length=5.000000 units=ft !overhead line
New Line.DEV_263820_5011599 Bus1=DEV_263820.2 Bus2=NODE_5011599.2 phases=1 Linecode=lc3 Length=5.000000 units=ft !overhead line
New Line.DEV_263821_5011599 Bus1=DEV_263821.1 Bus2=NODE_5011599.1 phases=1 Linecode=lc3 Length=5.000000 units=ft !overhead line
New Line.DEV_263834_263922 Bus1=DEV_263834.1.2.3 Bus2=DEV_263922.1.2.3 phases=3 Linecode=lc4 Length=5.000000 units=ft !overhead line
New Line.DEV_263840_263841 Bus1=DEV_263840.1.2.3 Bus2=DEV_263841.1.2.3 phases=3 Linecode=lc4 Length=5.000000 units=ft !overhead line
New Line.DEV_263842_263843 Bus1=DEV_263842.1.2.3 Bus2=DEV_263843.1.2.3 phases=3 Linecode=lc4 Length=5.000000 units=ft !overhead line
New Line.DEV_263851_263923 Bus1=DEV_263851.1.2.3 Bus2=DEV_263923.1.2.3 phases=3 Linecode=lc4 Length=5.000000 units=ft !overhead line
New Line.DEV_264990_264991 Bus1=DEV_264990.1.2.3 Bus2=DEV_264991.1.2.3 phases=3 Linecode=lc5 Length=5.000000 units=ft !overhead line
New Line.DEV_265173_265175 Bus1=DEV_265173.1.2.3 Bus2=DEV_265175.1.2.3 phases=3 Linecode=lc4 Length=5.000000 units=ft !overhead line
New Line.DEV_265174_265176 Bus1=DEV_265174.1.2.3 Bus2=DEV_265176.1.2.3 phases=3 Linecode=lc4 Length=5.000000 units=ft !overhead line
New Line.DEV_265584_628203 Bus1=DEV_265584.1.2.3 Bus2=NODE_628203.1.2.3 phases=3 Linecode=lc5 Length=5.000000 units=ft !overhead line
!New Line.DEV_51058546_51080616 Bus1=DEV_51058546.1.2.3 Bus2=DEV_51080616.1.2.3 phases=3 Linecode=lc5 Length=5.000000 units=ft !overhead line
New Line.DEV_51118372_51118374 Bus1=DEV_51118372.1.2.3 Bus2=DEV_51118374.1.2.3 phases=3 Linecode=lc4 Length=5.000000 units=ft !overhead line
New Line.DEV_51118373_51118375 Bus1=DEV_51118373.1.2.3 Bus2=DEV_51118375.1.2.3 phases=3 Linecode=lc4 Length=5.000000 units=ft !overhead line
New Line.DEV_51118540_51118542 Bus1=DEV_51118540.1.2.3 Bus2=DEV_51118542.1.2.3 phases=3 Linecode=lc4 Length=5.000000 units=ft !overhead line
New Line.DEV_51118541_51118543 Bus1=DEV_51118541.1.2.3 Bus2=DEV_51118543.1.2.3 phases=3 Linecode=lc4 Length=5.000000 units=ft !overhead line
New Line.DEV_51159905_51159907 Bus1=DEV_51159905.1.2.3 Bus2=DEV_51159907.1.2.3 phases=3 Linecode=lc4 Length=5.000000 units=ft !overhead line
New Line.DEV_51159906_51159908 Bus1=DEV_51159906.1.2.3 Bus2=DEV_51159908.1.2.3 phases=3 Linecode=lc4 Length=5.000000 units=ft !overhead line
New Line.DEV_51159924_51159926 Bus1=DEV_51159924.1.2.3 Bus2=DEV_51159926.1.2.3 phases=3 Linecode=lc4 Length=5.000000 units=ft !overhead line
New Line.DEV_51159925_51159927 Bus1=DEV_51159925.1.2.3 Bus2=DEV_51159927.1.2.3 phases=3 Linecode=lc4 Length=5.000000 units=ft !overhead line
New Line.DEV_51187193_628203 Bus1=DEV_51187193.1.2.3 Bus2=NODE_628203.1.2.3 phases=3 Linecode=lc4 Length=5.000000 units=ft !overhead line
New Line.DEV_51189819_51189821 Bus1=DEV_51189819.1.2.3 Bus2=DEV_51189821.1.2.3 phases=3 Linecode=lc4 Length=5.000000 units=ft !overhead line
New Line.DEV_51189820_51189822 Bus1=DEV_51189820.1.2.3 Bus2=DEV_51189822.1.2.3 phases=3 Linecode=lc4 Length=5.000000 units=ft !overhead line
New Line.OH_257608 Bus1=NODE_559690.3 Bus2=DEV_257789.3 phases=1 Linecode=lc6 Length=217.000000 units=ft !overhead line
New Line.OH_257609 Bus1=DEV_257789.3 Bus2=PRI_257609.3 phases=1 Linecode=lc6 Length=163.000000 units=ft !overhead line
New Line.OH_257610 Bus1=NODE_559756.3 Bus2=DEV_257509.3 phases=1 Linecode=lc6 Length=15.000000 units=ft !overhead line
New Line.OH_257780 Bus1=NODE_559690.3 Bus2=NODE_30111897.3 phases=1 Linecode=lc6 Length=54.000000 units=ft !overhead line
New Line.OH_257796 Bus1=DEV_257790.3 Bus2=NODE_559690.3 phases=1 Linecode=lc6 Length=385.000000 units=ft !overhead line
New Line.OH_257798 Bus1=DEV_257799.3 Bus2=DEV_257790.3 phases=1 Linecode=lc6 Length=317.000000 units=ft !overhead line
New Line.OH_257804 Bus1=NODE_559690.3 Bus2=DEV_257791.3 phases=1 Linecode=lc6 Length=134.000000 units=ft !overhead line
New Line.OH_257805 Bus1=DEV_257791.3 Bus2=PRI_257805.3 phases=1 Linecode=lc6 Length=190.000000 units=ft !overhead line
New Line.OH_257806 Bus1=DEV_257565.3 Bus2=DEV_257795.3 phases=1 Linecode=lc6 Length=177.000000 units=ft !overhead line
New Line.OH_257807 Bus1=DEV_257809.3 Bus2=DEV_257565.3 phases=1 Linecode=lc6 Length=331.000000 units=ft !overhead line
New Line.OH_257808 Bus1=DEV_257810.3 Bus2=DEV_257809.3 phases=1 Linecode=lc6 Length=328.000000 units=ft !overhead line
New Line.OH_257811 Bus1=DEV_257812.3 Bus2=DEV_257810.3 phases=1 Linecode=lc6 Length=164.000000 units=ft !overhead line
New Line.OH_257813 Bus1=DEV_257814.3 Bus2=DEV_257812.3 phases=1 Linecode=lc6 Length=323.000000 units=ft !overhead line
New Line.OH_257815 Bus1=DEV_257816.3 Bus2=DEV_257814.3 phases=1 Linecode=lc6 Length=383.000000 units=ft !overhead line
New Line.OH_257817 Bus1=NODE_559756.3 Bus2=DEV_257816.3 phases=1 Linecode=lc6 Length=149.000000 units=ft !overhead line
New Line.OH_257818 Bus1=DEV_257816.3 Bus2=NODE_30111897.3 phases=1 Linecode=lc6 Length=184.000000 units=ft !overhead line
New Line.OH_257819 Bus1=DEV_257820.3 Bus2=NODE_559756.3 phases=1 Linecode=lc6 Length=12.000000 units=ft !overhead line
New Line.OH_257824 Bus1=DEV_257795.3 Bus2=PRI_257824.3 phases=1 Linecode=lc6 Length=159.000000 units=ft !overhead line
New Line.OH_258777 Bus1=DEV_258994.1.2.3 Bus2=NODE_609020.1.2.3 phases=3 Linecode=lc7 Length=1151.000000 units=ft !overhead line
New Line.OH_258778 Bus1=NODE_609020.1.2.3 Bus2=NODE_609022.1.2.3 phases=3 Linecode=lc8 Length=984.000000 units=ft !overhead line
New Line.OH_258779 Bus1=NODE_609022.1.2.3 Bus2=NODE_609096.1.2.3 phases=3 Linecode=lc8 Length=278.000000 units=ft !overhead line
New Line.OH_258780 Bus1=DEV_258913.1.2.3 Bus2=NODE_609020.1.2.3 phases=3 Linecode=lc8 Length=13.000000 units=ft !overhead line
New Line.OH_258781 Bus1=NODE_609020.1.2.3 Bus2=DEV_258789.1.2.3 phases=3 Linecode=lc8 Length=13.000000 units=ft !overhead line
New Line.OH_258783 Bus1=NODE_609096.1.2.3 Bus2=DEV_258893.1.2.3 phases=3 Linecode=lc7 Length=18.000000 units=ft !overhead line
New Line.OH_258787 Bus1=DEV_258994.1.2.3 Bus2=NODE_11021908.1.2.3 phases=3 Linecode=lc7 Length=312.000000 units=ft !overhead line
New Line.OH_258795 Bus1=NODE_609096.1 Bus2=DEV_258796.1 phases=1 Linecode=lc9 Length=10.000000 units=ft !overhead line
New Line.OH_259262 Bus1=NODE_613383.1.2.3 Bus2=NODE_11021869.1.2.3 phases=3 Linecode=lc7 Length=1223.000000 units=ft !overhead line
New Line.OH_259263 Bus1=NODE_613383.1.2.3 Bus2=DEV_259251.1.2.3 phases=3 Linecode=lc7 Length=34.000000 units=ft !overhead line
New Line.OH_259264 Bus1=NODE_613383.1.2.3 Bus2=NODE_613393.1.2.3 phases=3 Linecode=lc7 Length=229.000000 units=ft !overhead line
New Line.OH_259265 Bus1=NODE_613393.1.2.3 Bus2=NODE_613395.1.2.3 phases=3 Linecode=lc7 Length=658.000000 units=ft !overhead line
New Line.OH_259266 Bus1=NODE_613395.1.2.3 Bus2=NODE_613398.1.2.3 phases=3 Linecode=lc7 Length=310.000000 units=ft !overhead line
New Line.OH_259268 Bus1=NODE_613398.1.2.3 Bus2=NODE_613405.1.2.3 phases=3 Linecode=lc10 Length=361.000000 units=ft !overhead line
New Line.OH_259269 Bus1=NODE_613405.1.2.3 Bus2=NODE_613407.1.2.3 phases=3 Linecode=lc10 Length=115.000000 units=ft !overhead line
New Line.OH_259270 Bus1=NODE_613407.1.2.3 Bus2=NODE_11021868.1.2.3 phases=3 Linecode=lc7 Length=228.000000 units=ft !overhead line
New Line.OH_259522 Bus1=NODE_11021869.1.2.3 Bus2=NODE_11021870.1.2.3 phases=3 Linecode=lc7 Length=151.000000 units=ft !overhead line
New Line.OH_260847 Bus1=DEV_51077536.1.2.3 Bus2=DEV_260853.1.2.3 phases=3 Linecode=lc11 Length=121.000000 units=ft !overhead line
New Line.OH_260848 Bus1=DEV_260853.1.2.3 Bus2=NODE_632693.1.2.3 phases=3 Linecode=lc11 Length=197.000000 units=ft !overhead line
New Line.OH_260849 Bus1=NODE_632693.1.2.3 Bus2=DEV_260852.1.2.3 phases=3 Linecode=lc11 Length=355.000000 units=ft !overhead line
New Line.OH_260850 Bus1=DEV_260852.1.2.3 Bus2=DEV_260851.1.2.3 phases=3 Linecode=lc11 Length=548.000000 units=ft !overhead line
New Line.OH_260929 Bus1=NODE_630664.1.2.3 Bus2=NODE_11021960.1.2.3 phases=3 Linecode=lc11 Length=32.000000 units=ft !overhead line
New Line.OH_260930 Bus1=DEV_260934.1.3 Bus2=DEV_51187136.1.3 phases=2 Linecode=lc12 Length=142.000000 units=ft !overhead line
New Line.OH_260931 Bus1=NODE_11021962.1.3 Bus2=DEV_260934.1.3 phases=2 Linecode=lc13 Length=179.000000 units=ft !overhead line
New Line.OH_260932 Bus1=NODE_11021963.1.3 Bus2=DEV_260933.1.3 phases=2 Linecode=lc14 Length=175.000000 units=ft !overhead line
New Line.OH_260935 Bus1=DEV_260951.1.2.3 Bus2=NODE_630664.1.2.3 phases=3 Linecode=lc11 Length=634.000000 units=ft !overhead line
New Line.OH_260936 Bus1=NODE_630695.1.2.3 Bus2=DEV_50012016.1.2.3 phases=3 Linecode=lc11 Length=57.000000 units=ft !overhead line
New Line.OH_260937 Bus1=DEV_260944.1.2.3 Bus2=NODE_630695.1.2.3 phases=3 Linecode=lc11 Length=304.000000 units=ft !overhead line
New Line.OH_260938 Bus1=NODE_630679.1.2.3 Bus2=DEV_260944.1.2.3 phases=3 Linecode=lc11 Length=228.000000 units=ft !overhead line
New Line.OH_260939 Bus1=NODE_630677.1.2.3 Bus2=NODE_630679.1.2.3 phases=3 Linecode=lc11 Length=225.000000 units=ft !overhead line
New Line.OH_260940 Bus1=DEV_260942.1.2.3 Bus2=NODE_630677.1.2.3 phases=3 Linecode=lc11 Length=305.000000 units=ft !overhead line
New Line.OH_260941 Bus1=DEV_51077536.1.2.3 Bus2=DEV_260942.1.2.3 phases=3 Linecode=lc11 Length=369.000000 units=ft !overhead line
New Line.OH_260945 Bus1=DEV_260949.1.2.3 Bus2=NODE_630695.1.2.3 phases=3 Linecode=lc8 Length=153.000000 units=ft !overhead line
New Line.OH_260946 Bus1=DEV_260948.1.2.3 Bus2=DEV_260949.1.2.3 phases=3 Linecode=lc8 Length=309.000000 units=ft !overhead line
New Line.OH_260947 Bus1=NODE_11021965.1.2.3 Bus2=DEV_260948.1.2.3 phases=3 Linecode=lc8 Length=187.000000 units=ft !overhead line
New Line.OH_260950 Bus1=NODE_630695.1.2.3 Bus2=DEV_260953.1.2.3 phases=3 Linecode=lc8 Length=181.000000 units=ft !overhead line
New Line.OH_260952 Bus1=NODE_630664.1.3 Bus2=NODE_11021961.1.3 phases=2 Linecode=lc13 Length=69.000000 units=ft !overhead line
New Line.OH_260955 Bus1=DEV_50012016.1.2.3 Bus2=DEV_260951.1.2.3 phases=3 Linecode=lc11 Length=74.000000 units=ft !overhead line
New Line.OH_261168 Bus1=NODE_630598.1.3 Bus2=NODE_11021962.1.3 phases=2 Linecode=lc12 Length=96.000000 units=ft !overhead line
New Line.OH_261169 Bus1=NODE_630598.1.3 Bus2=NODE_11021963.1.3 phases=2 Linecode=lc14 Length=260.000000 units=ft !overhead line
New Line.OH_261170 Bus1=NODE_630598.1.3 Bus2=DEV_261171.1.3 phases=2 Linecode=lc12 Length=1167.000000 units=ft !overhead line
New Line.OH_261399 Bus1=PRI_261399.1.3 Bus2=NODE_11021973.1.3 phases=2 Linecode=lc14 Length=143.000000 units=ft !overhead line
New Line.OH_261400 Bus1=DEV_261404.1.2.3 Bus2=NODE_11021972.1.2.3 phases=3 Linecode=lc8 Length=209.000000 units=ft !overhead line
New Line.OH_261401 Bus1=NODE_618744.1.2.3 Bus2=NODE_618756.1.2.3 phases=3 Linecode=lc8 Length=456.000000 units=ft !overhead line
New Line.OH_261402 Bus1=NODE_618756.1.2 Bus2=NODE_11021974.1.2 phases=2 Linecode=lc14 Length=166.000000 units=ft !overhead line
New Line.OH_261403 Bus1=NODE_618756.1.2.3 Bus2=NODE_11021975.1.2.3 phases=3 Linecode=lc8 Length=164.000000 units=ft !overhead line
New Line.OH_261429 Bus1=NODE_618744.1.3 Bus2=DEV_261428.1.3 phases=2 Linecode=lc14 Length=593.000000 units=ft !overhead line
New Line.OH_261430 Bus1=NODE_618744.1.2.3 Bus2=DEV_261404.1.2.3 phases=3 Linecode=lc8 Length=437.000000 units=ft !overhead line
New Line.OH_261479 Bus1=DEV_261482.1.3 Bus2=DEV_261481.1.3 phases=2 Linecode=lc12 Length=681.000000 units=ft !overhead line
New Line.OH_261480 Bus1=DEV_261481.1.3 Bus2=PRI_261480.1.3 phases=2 Linecode=lc12 Length=397.000000 units=ft !overhead line
New Line.OH_261483 Bus1=NODE_11021974.1.2 Bus2=DEV_261484.1.2 phases=2 Linecode=lc14 Length=93.000000 units=ft !overhead line
New Line.OH_261485 Bus1=DEV_261484.1.2 Bus2=PRI_261485.1.2 phases=2 Linecode=lc14 Length=162.000000 units=ft !overhead line
New Line.OH_261486 Bus1=NODE_11021975.1.2.3 Bus2=DEV_261487.1.2.3 phases=3 Linecode=lc8 Length=435.000000 units=ft !overhead line
New Line.OH_261488 Bus1=DEV_261487.1.2.3 Bus2=DEV_261490.1.2.3 phases=3 Linecode=lc8 Length=458.000000 units=ft !overhead line
New Line.OH_261489 Bus1=DEV_261490.1.2.3 Bus2=PRI_261489.1.2.3 phases=3 Linecode=lc8 Length=334.000000 units=ft !overhead line
New Line.OH_261491 Bus1=DEV_261490.1.2.3 Bus2=DEV_261492.1.2.3 phases=3 Linecode=lc8 Length=443.000000 units=ft !overhead line
New Line.OH_261493 Bus1=NODE_11021907.1.2.3 Bus2=PRI_261493.1.2.3 phases=3 Linecode=lc8 Length=388.000000 units=ft !overhead line
New Line.OH_261535 Bus1=NODE_609912.1.2.3 Bus2=DEV_261606.1.2.3 phases=3 Linecode=lc8 Length=82.000000 units=ft !overhead line
New Line.OH_261555 Bus1=NODE_609912.1.2.3 Bus2=NODE_11021904.1.2.3 phases=3 Linecode=lc7 Length=185.000000 units=ft !overhead line
New Line.OH_261556 Bus1=NODE_609910.1.2.3 Bus2=NODE_609912.1.2.3 phases=3 Linecode=lc7 Length=336.000000 units=ft !overhead line
New Line.OH_261557 Bus1=NODE_11021908.1.2.3 Bus2=NODE_609901.1.2.3 phases=3 Linecode=lc7 Length=71.000000 units=ft !overhead line
New Line.OH_261558 Bus1=NODE_609910.2.3 Bus2=NODE_11021902.2.3 phases=2 Linecode=lc14 Length=406.000000 units=ft !overhead line
!New Line.OH_261571 Bus1=DEV_261607.1.2.3 Bus2=NODE_11021905.1.2.3 phases=3 Linecode=lc11 Length=19.000000 units=ft !overhead line
!New Line.OH_261572 Bus1=DEV_261608.1.2.3 Bus2=DEV_261607.1.2.3 phases=3 Linecode=lc11 Length=197.000000 units=ft !overhead line
New Line.OH_261573 Bus1=DEV_261609.1.2.3 Bus2=DEV_261608.1.2.3 phases=3 Linecode=lc11 Length=226.000000 units=ft !overhead line
New Line.OH_261574 Bus1=NODE_609864.1.2.3 Bus2=DEV_261609.1.2.3 phases=3 Linecode=lc11 Length=572.000000 units=ft !overhead line
New Line.OH_261575 Bus1=NODE_609861.1.2.3 Bus2=NODE_609864.1.2.3 phases=3 Linecode=lc7 Length=313.000000 units=ft !overhead line upgrade 3-phase 336 AAC
New Line.OH_261576 Bus1=DEV_261587.1.2.3 Bus2=NODE_609861.1.2.3 phases=3 Linecode=lc7 Length=305.000000 units=ft !overhead line upgrade 3-phase 336 AAC
New Line.OH_261577 Bus1=NODE_609857.1.2.3 Bus2=DEV_261587.1.2.3 phases=3 Linecode=lc7 Length=157.000000 units=ft !overhead line upgrade 3-phase 336 AAC
New Line.OH_261578 Bus1=NODE_609855.1.2.3 Bus2=NODE_609857.1.2.3 phases=3 Linecode=lc7 Length=165.000000 units=ft !overhead line upgrade 3-phase 336 AAC
New Line.OH_261579 Bus1=DEV_261583.1.2.3 Bus2=NODE_609855.1.2.3 phases=3 Linecode=lc7 Length=17.000000 units=ft !overhead line upgrade 3-phase 336 AAC
New Line.OH_261580 Bus1=DEV_261582.1.2.3 Bus2=DEV_261583.1.2.3 phases=3 Linecode=lc7 Length=127.000000 units=ft !overhead line upgrade 3-phase 336 AAC
New Line.OH_261581 Bus1=NODE_11021906.1.2.3 Bus2=DEV_261582.1.2.3 phases=3 Linecode=lc7 Length=129.000000 units=ft !overhead line upgrade 3-phase 336 AAC
New Line.OH_261584 Bus1=NODE_609855.1.2.3 Bus2=DEV_261585.1.2.3 phases=3 Linecode=lc8 Length=650.000000 units=ft !overhead line
New Line.OH_261586 Bus1=DEV_261585.1.2.3 Bus2=NODE_11021907.1.2.3 phases=3 Linecode=lc8 Length=189.000000 units=ft !overhead line
New Line.OH_261588 Bus1=NODE_609864.1.2.3 Bus2=NODE_609881.1.2.3 phases=3 Linecode=lc8 Length=246.000000 units=ft !overhead line
New Line.OH_261589 Bus1=NODE_609881.1.2.3 Bus2=DEV_261611.1.2.3 phases=3 Linecode=lc8 Length=201.000000 units=ft !overhead line
New Line.OH_261590 Bus1=DEV_261611.1.2.3 Bus2=DEV_261612.1.2.3 phases=3 Linecode=lc8 Length=20.000000 units=ft !overhead line
New Line.OH_261591 Bus1=DEV_261612.1.2.3 Bus2=DEV_261615.1.2.3 phases=3 Linecode=lc8 Length=431.000000 units=ft !overhead line
New Line.OH_261592 Bus1=NODE_609864.1.2.3 Bus2=DEV_261610.1.2.3 phases=3 Linecode=lc7 Length=283.000000 units=ft !overhead line upgrade 3-phase 336 AAC
New Line.OH_261593 Bus1=DEV_261610.1.2.3 Bus2=NODE_609868.1.2.3 phases=3 Linecode=lc7 Length=168.000000 units=ft !overhead line upgrade 3-phase 336 AAC
New Line.OH_261595 Bus1=NODE_609868.1.2.3 Bus2=NODE_609870.1.2.3 phases=3 Linecode=lc7 Length=130.000000 units=ft !overhead line upgrade 3-phase 336 AAC
New Line.OH_261596 Bus1=NODE_609870.1.2.3 Bus2=DEV_261619.1.2.3 phases=3 Linecode=lc7 Length=157.000000 units=ft !overhead line upgrade 3-phase 336 AAC
New Line.OH_261597 Bus1=DEV_261605.1.2.3 Bus2=NODE_609910.1.2.3 phases=3 Linecode=lc7 Length=339.000000 units=ft !overhead line 
New Line.OH_261598 Bus1=DEV_261606.1.2.3 Bus2=NODE_11021903.1.2.3 phases=3 Linecode=lc8 Length=182.000000 units=ft !overhead line
New Line.OH_261600 Bus1=NODE_30111899.1.2.3 Bus2=DEV_261605.1.2.3 phases=3 Linecode=lc7 Length=362.000000 units=ft !overhead line
New Line.OH_261601 Bus1=NODE_609901.1.2.3 Bus2=NODE_30111899.1.2.3 phases=3 Linecode=lc7 Length=5.000000 units=ft !overhead line
New Line.OH_261604 Bus1=DEV_261619.1.2.3 Bus2=DEV_261599.1.2.3 phases=3 Linecode=lc7 Length=639.000000 units=ft !overhead line!upgrade 3-phase 336 AAC
New Line.OH_261613 Bus1=DEV_261615.1.2.3 Bus2=PRI_261613.1.2.3 phases=3 Linecode=lc8 Length=214.000000 units=ft !overhead line
New Line.OH_261659 Bus1=DEV_261652.1.2.3 Bus2=NODE_11021903.1.2.3 phases=3 Linecode=lc8 Length=109.000000 units=ft !overhead line
New Line.OH_261662 Bus1=DEV_261703.1.2.3 Bus2=DEV_261667.1.2.3 phases=3 Linecode=lc7 Length=40.000000 units=ft !overhead line
New Line.OH_261663 Bus1=DEV_261667.1.2.3 Bus2=DEV_261702.1.2.3 phases=3 Linecode=lc7 Length=188.000000 units=ft !overhead line
New Line.OH_261664 Bus1=NODE_619132.1.2.3 Bus2=DEV_261701.1.2.3 phases=3 Linecode=lc7 Length=140.000000 units=ft !overhead line
New Line.OH_261665 Bus1=NODE_11032480.1.2.3 Bus2=DEV_261696.1.2.3 phases=3 Linecode=lc7 Length=14.000000 units=ft !overhead line
New Line.OH_261666 Bus1=DEV_261699.1.2.3 Bus2=NODE_11021904.1.2.3 phases=3 Linecode=lc7 Length=383.000000 units=ft !overhead line
New Line.OH_261668 Bus1=DEV_261706.1.2 Bus2=DEV_261700.1.2 phases=2 Linecode=lc14 Length=452.000000 units=ft !overhead line
New Line.OH_261669 Bus1=DEV_261700.1.2 Bus2=NODE_619132.1.2 phases=2 Linecode=lc14 Length=212.000000 units=ft !overhead line
New Line.OH_261670 Bus1=NODE_619119.1.2 Bus2=DEV_261706.1.2 phases=2 Linecode=lc14 Length=360.000000 units=ft !overhead line
New Line.OH_261681 Bus1=NODE_619132.1.2.3 Bus2=NODE_11032480.1.2.3 phases=3 Linecode=lc7 Length=112.000000 units=ft !overhead line
!New Line.OH_261682 Bus1=DEV_51058546.1.2.3 Bus2=DEV_261696.1.2.3 phases=3 Linecode=lc11 Length=12.000000 units=ft !overhead line
!New Line.OH_261687 Bus1=NODE_31164153.1.2.3 Bus2=DEV_51080616.1.2.3 phases=3 Linecode=lc11 Length=154.000000 units=ft !overhead line
!New Line.OH_261688 Bus1=NODE_11021905.1.2.3 Bus2=NODE_31164153.1.2.3 phases=3 Linecode=lc11 Length=606.000000 units=ft !overhead line
New Line.OH_261690 Bus1=DEV_261701.1.2.3 Bus2=DEV_261702.1.2.3 phases=3 Linecode=lc7 Length=700.000000 units=ft !overhead line
New Line.OH_261691 Bus1=PRI_261691.2.3 Bus2=DEV_261698.2.3 phases=2 Linecode=lc14 Length=265.000000 units=ft !overhead line
New Line.OH_261692 Bus1=DEV_261698.2.3 Bus2=NODE_11021902.2.3 phases=2 Linecode=lc14 Length=128.000000 units=ft !overhead line
New Line.OH_261693 Bus1=NODE_11032480.1.2.3 Bus2=DEV_261699.1.2.3 phases=3 Linecode=lc7 Length=455.000000 units=ft !overhead line
New Line.OH_261704 Bus1=DEV_261702.1.2 Bus2=DEV_261705.1.2 phases=2 Linecode=lc14 Length=147.000000 units=ft !overhead line
New Line.OH_261709 Bus1=DEV_261708.1.2 Bus2=NODE_619119.1.2 phases=2 Linecode=lc14 Length=217.000000 units=ft !overhead line
New Line.OH_261713 Bus1=NODE_11021868.1.2.3 Bus2=DEV_51054308.1.2.3 phases=3 Linecode=lc7 Length=85.000000 units=ft !overhead line
New Line.OH_261715 Bus1=NODE_30111898.1.2.3 Bus2=DEV_51058691.1.2.3 phases=3 Linecode=lc7 Length=67.000000 units=ft !overhead line
New Line.OH_261716 Bus1=NODE_619096.1.2.3 Bus2=NODE_30111898.1.2.3 phases=3 Linecode=lc7 Length=12.000000 units=ft !overhead line
New Line.OH_261717 Bus1=DEV_51058691.1.2.3 Bus2=DEV_261703.1.2.3 phases=3 Linecode=lc7 Length=644.000000 units=ft !overhead line
New Line.OH_261725 Bus1=NODE_11021900.1.2.3 Bus2=NODE_31150864.1.2.3 phases=3 Linecode=lc7 Length=633.000000 units=ft !overhead line
New Line.OH_261726 Bus1=NODE_31150864.1.2.3 Bus2=NODE_12011152.1.2.3 phases=3 Linecode=lc7 Length=1380.000000 units=ft !overhead line
New Line.OH_261732 Bus1=NODE_30030117.1.2.3 Bus2=NODE_11021870.1.2.3 phases=3 Linecode=lc7 Length=185.000000 units=ft !overhead line
New Line.OH_261733 Bus1=NODE_12011152.1.2.3 Bus2=NODE_31161723.1.2.3 phases=3 Linecode=lc7 Length=261.000000 units=ft !overhead line
New Line.OH_261734 Bus1=NODE_630200.1.2.3 Bus2=NODE_30030117.1.2.3 phases=3 Linecode=lc7 Length=107.000000 units=ft !overhead line
New Line.OH_261747 Bus1=NODE_630200.1 Bus2=DEV_261736.1 phases=1 Linecode=lc9 Length=145.000000 units=ft !overhead line
New Line.OH_261750 Bus1=NODE_12011152.1.2.3 Bus2=DEV_261735.1.2.3 phases=3 Linecode=lc8 Length=166.000000 units=ft !overhead line
New Line.OH_261784 Bus1=NODE_11021982.1.2.3 Bus2=NODE_586671.1.2.3 phases=3 Linecode=lc7 Length=450.000000 units=ft !overhead line
New Line.OH_261792 Bus1=NODE_586671.1.2.3 Bus2=DEV_51060724.1.2.3 phases=3 Linecode=lc7 Length=21.000000 units=ft !overhead line
New Line.OH_261793 Bus1=NODE_586671.1.2.3 Bus2=DEV_261791.1.2.3 phases=3 Linecode=lc7 Length=23.000000 units=ft !overhead line
New Line.OH_261799 Bus1=NODE_586671.1.2.3 Bus2=DEV_261796.1.2.3 phases=3 Linecode=lc7 Length=23.000000 units=ft !overhead line
New Line.OH_261806 Bus1=NODE_11021900.1.2.3 Bus2=DEV_261807.1.2.3 phases=3 Linecode=lc7 Length=182.000000 units=ft !overhead line
New Line.OH_261847 Bus1=DEV_261853.1.2.3 Bus2=DEV_261851.1.2.3 phases=3 Linecode=lc8 Length=269.000000 units=ft !overhead line
New Line.OH_261848 Bus1=DEV_261851.1.2.3 Bus2=NODE_10016472.1.2.3 phases=3 Linecode=lc10 Length=317.000000 units=ft !overhead line
New Line.OH_261852 Bus1=NODE_10016472.1.2.3 Bus2=NODE_11021985.1.2.3 phases=3 Linecode=lc8 Length=162.000000 units=ft !overhead line
New Line.OH_262466 Bus1=NODE_614081.3 Bus2=DEV_262467.3 phases=1 Linecode=lc9 Length=15.000000 units=ft !overhead line
New Line.OH_262479 Bus1=NODE_10017661.1.2.3 Bus2=NODE_614081.1.2.3 phases=3 Linecode=lc7 Length=83.000000 units=ft !overhead line
New Line.OH_262480 Bus1=DEV_262518.1.2.3 Bus2=NODE_10017657.1.2.3 phases=3 Linecode=lc11 Length=40.000000 units=ft !overhead line
New Line.OH_262481 Bus1=DEV_262517.1.2.3 Bus2=DEV_262518.1.2.3 phases=3 Linecode=lc11 Length=242.000000 units=ft !overhead line
New Line.OH_262482 Bus1=DEV_262517.1.2.3 Bus2=NODE_614124.1.2.3 phases=3 Linecode=lc11 Length=52.000000 units=ft !overhead line
New Line.OH_262483 Bus1=NODE_614081.1.2.3 Bus2=DEV_262502.1.2.3 phases=3 Linecode=lc7 Length=195.000000 units=ft !overhead line
New Line.OH_262484 Bus1=DEV_262502.1.2.3 Bus2=NODE_614038.1.2.3 phases=3 Linecode=lc7 Length=188.000000 units=ft !overhead line
New Line.OH_262485 Bus1=DEV_262516.2.3 Bus2=DEV_262515.2.3 phases=2 Linecode=lc12 Length=246.000000 units=ft !overhead line
New Line.OH_262486 Bus1=DEV_262515.2.3 Bus2=DEV_262513.2.3 phases=2 Linecode=lc12 Length=112.000000 units=ft !overhead line
New Line.OH_262487 Bus1=DEV_262513.2.3 Bus2=NODE_614059.2.3 phases=2 Linecode=lc12 Length=168.000000 units=ft !overhead line
New Line.OH_262488 Bus1=NODE_614059.2.3 Bus2=DEV_262514.2.3 phases=2 Linecode=lc14 Length=155.000000 units=ft !overhead line
New Line.OH_262489 Bus1=NODE_614059.2.3 Bus2=DEV_262512.2.3 phases=2 Linecode=lc12 Length=263.000000 units=ft !overhead line
New Line.OH_262490 Bus1=DEV_262512.2.3 Bus2=DEV_262511.2.3 phases=2 Linecode=lc12 Length=176.000000 units=ft !overhead line
New Line.OH_262497 Bus1=NODE_30051004.1.2.3 Bus2=DEV_262516.1.2.3 phases=3 Linecode=lc7 Length=166.000000 units=ft !overhead line
New Line.OH_262498 Bus1=NODE_30051004.1.2.3 Bus2=NODE_614038.1.2.3 phases=3 Linecode=lc7 Length=175.000000 units=ft !overhead line
New Line.OH_262499 Bus1=NODE_614124.1.2.3 Bus2=PRI_262499.1.2.3 phases=3 Linecode=lc11 Length=215.000000 units=ft !overhead line
New Line.OH_262525 Bus1=DEV_262527.1.2.3 Bus2=DEV_262530.1.2.3 phases=3 Linecode=lc7 Length=98.000000 units=ft !overhead line
New Line.OH_262540 Bus1=DEV_262530.1.2.3 Bus2=DEV_262542.1.2.3 phases=3 Linecode=lc7 Length=137.000000 units=ft !overhead line
New Line.OH_262541 Bus1=DEV_262542.1.2.3 Bus2=DEV_262516.1.2.3 phases=3 Linecode=lc7 Length=156.000000 units=ft !overhead line
New Line.OH_262560 Bus1=DEV_262552.1.2.3 Bus2=NODE_30055093.1.2.3 phases=3 Linecode=lc15 Length=1774.000000 units=ft !overhead line
New Line.OH_262561 Bus1=NODE_30055093.1.2.3 Bus2=NODE_30055091.1.2.3 phases=3 Linecode=lc15 Length=168.000000 units=ft !overhead line
New Line.OH_262564 Bus1=NODE_11015808.1.2.3 Bus2=NODE_30002704.1.2.3 phases=3 Linecode=lc15 Length=268.000000 units=ft !overhead line
New Line.OH_262570 Bus1=NODE_11021968.1.2.3 Bus2=NODE_11015808.1.2.3 phases=3 Linecode=lc15 Length=1127.000000 units=ft !overhead line
New Line.OH_262588 Bus1=NODE_30038143.1.2.3 Bus2=NODE_11021968.1.2.3 phases=3 Linecode=lc15 Length=586.000000 units=ft !overhead line
New Line.OH_262589 Bus1=NODE_617985.1.2.3 Bus2=NODE_11021966.1.2.3 phases=3 Linecode=lc15 Length=364.000000 units=ft !overhead line
New Line.OH_262590 Bus1=DEV_262594.1.3 Bus2=NODE_617985.1.3 phases=2 Linecode=lc14 Length=102.000000 units=ft !overhead line
New Line.OH_262591 Bus1=DEV_262593.1.3 Bus2=NODE_30055088.1.3 phases=2 Linecode=lc14 Length=14.000000 units=ft !overhead line
New Line.OH_262592 Bus1=NODE_30055088.1.3 Bus2=DEV_262594.1.3 phases=2 Linecode=lc14 Length=407.000000 units=ft !overhead line
New Line.OH_262595 Bus1=NODE_617985.1.2.3 Bus2=DEV_262597.1.2.3 phases=3 Linecode=lc15 Length=185.000000 units=ft !overhead line
New Line.OH_262596 Bus1=DEV_262597.1.2.3 Bus2=NODE_30055090.1.2.3 phases=3 Linecode=lc15 Length=267.000000 units=ft !overhead line
New Line.OH_262598 Bus1=PRI_262598.1.2.3 Bus2=DEV_51062114.1.2.3 phases=3 Linecode=lc8 Length=238.000000 units=ft !overhead line
New Line.OH_262602 Bus1=NODE_30038144.1.2.3 Bus2=NODE_30038143.1.2.3 phases=3 Linecode=lc15 Length=560.000000 units=ft !overhead line
New Line.OH_262603 Bus1=NODE_30055090.1.2.3 Bus2=NODE_30038144.1.2.3 phases=3 Linecode=lc15 Length=493.000000 units=ft !overhead line
New Line.OH_262645 Bus1=NODE_11021959.1.2.3 Bus2=NODE_11021960.1.2.3 phases=3 Linecode=lc11 Length=503.000000 units=ft !overhead line
New Line.OH_262646 Bus1=DEV_262661.1.2.3 Bus2=NODE_11021965.1.2.3 phases=3 Linecode=lc8 Length=386.000000 units=ft !overhead line
New Line.OH_262647 Bus1=NODE_619037.1.2.3 Bus2=DEV_262661.1.2.3 phases=3 Linecode=lc8 Length=255.000000 units=ft !overhead line
New Line.OH_262648 Bus1=DEV_262651.1.2.3 Bus2=NODE_619037.1.2.3 phases=3 Linecode=lc16 Length=702.000000 units=ft !overhead line
New Line.OH_262649 Bus1=NODE_619029.1.2.3 Bus2=DEV_262651.1.2.3 phases=3 Linecode=lc16 Length=172.000000 units=ft !overhead line
New Line.OH_262650 Bus1=NODE_619029.1.2.3 Bus2=NODE_11021966.1.2.3 phases=3 Linecode=lc15 Length=59.000000 units=ft !overhead line
New Line.OH_262652 Bus1=NODE_619046.1.2.3 Bus2=NODE_619037.1.2.3 phases=3 Linecode=lc8 Length=234.000000 units=ft !overhead line
New Line.OH_262653 Bus1=NODE_619046.1.2.3 Bus2=NODE_619048.1.2.3 phases=3 Linecode=lc8 Length=481.000000 units=ft !overhead line
New Line.OH_262654 Bus1=DEV_262690.1.3 Bus2=DEV_262689.1.3 phases=2 Linecode=lc14 Length=162.000000 units=ft !overhead line
New Line.OH_262655 Bus1=DEV_262689.1.3 Bus2=DEV_262688.1.3 phases=2 Linecode=lc14 Length=167.000000 units=ft !overhead line
New Line.OH_262656 Bus1=DEV_262688.1.3 Bus2=NODE_11012168.1.3 phases=2 Linecode=lc14 Length=468.000000 units=ft !overhead line
New Line.OH_262657 Bus1=NODE_11012168.1.3 Bus2=DEV_51117467.1.3 phases=2 Linecode=lc14 Length=1043.000000 units=ft !overhead line
New Line.OH_262658 Bus1=NODE_619048.1.2.3 Bus2=DEV_262659.1.2.3 phases=3 Linecode=lc8 Length=12.000000 units=ft !overhead line
New Line.OH_262660 Bus1=DEV_262659.1.2.3 Bus2=NODE_11021967.1.2.3 phases=3 Linecode=lc8 Length=563.000000 units=ft !overhead line
New Line.OH_262662 Bus1=DEV_262663.1.3 Bus2=NODE_11021961.1.3 phases=2 Linecode=lc12 Length=131.000000 units=ft !overhead line
New Line.OH_262667 Bus1=NODE_30078903.1.2.3 Bus2=DEV_262690.1.2.3 phases=3 Linecode=lc8 Length=38.000000 units=ft !overhead line
New Line.OH_262668 Bus1=NODE_619048.1.2.3 Bus2=NODE_30078903.1.2.3 phases=3 Linecode=lc8 Length=141.000000 units=ft !overhead line
New Line.OH_262669 Bus1=DEV_262691.1.2.3 Bus2=DEV_262665.1.2.3 phases=3 Linecode=lc8 Length=139.000000 units=ft !overhead line
New Line.OH_262670 Bus1=DEV_262674.1.2.3 Bus2=DEV_262691.1.2.3 phases=3 Linecode=lc8 Length=824.000000 units=ft !overhead line
New Line.OH_262671 Bus1=DEV_262665.1.2.3 Bus2=NODE_619075.1.2.3 phases=3 Linecode=lc8 Length=227.000000 units=ft !overhead line
New Line.OH_262672 Bus1=NODE_619075.1.2.3 Bus2=NODE_11021958.1.2.3 phases=3 Linecode=lc8 Length=112.000000 units=ft !overhead line
New Line.OH_262673 Bus1=NODE_11021958.1.2.3 Bus2=DEV_51079464.1.2.3 phases=3 Linecode=lc8 Length=338.000000 units=ft !overhead line
New Line.OH_262692 Bus1=NODE_30078903.1.2.3 Bus2=DEV_262674.1.2.3 phases=3 Linecode=lc8 Length=255.000000 units=ft !overhead line
New Line.OH_262699 Bus1=NODE_11012168.1.3 Bus2=DEV_262694.1.3 phases=2 Linecode=lc14 Length=619.000000 units=ft !overhead line
New Line.OH_262729 Bus1=NODE_11021956.1.2.3 Bus2=DEV_262733.1.2.3 phases=3 Linecode=lc11 Length=123.000000 units=ft !overhead line
New Line.OH_262730 Bus1=DEV_262733.1.2.3 Bus2=NODE_31195850.1.2.3 phases=3 Linecode=lc11 Length=389.000000 units=ft !overhead line
New Line.OH_262732 Bus1=NODE_31195850.1.2.3 Bus2=PRI_262732.1.2.3 phases=3 Linecode=lc11 Length=5.000000 units=ft !overhead line
New Line.OH_262749 Bus1=NODE_11021959.1.2.3 Bus2=PRI_262749.1.2.3 phases=3 Linecode=lc11 Length=34.000000 units=ft !overhead line
New Line.OH_262750 Bus1=NODE_619478.1.2.3 Bus2=NODE_30078911.1.2.3 phases=3 Linecode=lc8 Length=211.000000 units=ft !overhead line
New Line.OH_262751 Bus1=NODE_30078907.1.2.3 Bus2=NODE_30078909.1.2.3 phases=3 Linecode=lc11 Length=196.000000 units=ft !overhead line
New Line.OH_262752 Bus1=NODE_30078909.1.2.3 Bus2=DEV_51071988.1.2.3 phases=3 Linecode=lc11 Length=139.000000 units=ft !overhead line
New Line.OH_262753 Bus1=NODE_30078911.1.2.3 Bus2=NODE_30078907.1.2.3 phases=3 Linecode=lc8 Length=208.000000 units=ft !overhead line
New Line.OH_262864 Bus1=DEV_262867.1.2.3 Bus2=NODE_11021955.1.2.3 phases=3 Linecode=lc16 Length=27.000000 units=ft !overhead line
New Line.OH_262865 Bus1=DEV_262866.1.2.3 Bus2=DEV_262867.1.2.3 phases=3 Linecode=lc16 Length=210.000000 units=ft !overhead line
New Line.OH_262868 Bus1=DEV_262893.1.2.3 Bus2=NODE_11021952.1.2.3 phases=3 Linecode=lc11 Length=116.000000 units=ft !overhead line
New Line.OH_262869 Bus1=NODE_618828.1.2.3 Bus2=DEV_262893.1.2.3 phases=3 Linecode=lc11 Length=149.000000 units=ft !overhead line
New Line.OH_262870 Bus1=DEV_262884.1.2.3 Bus2=NODE_618828.1.2.3 phases=3 Linecode=lc11 Length=91.000000 units=ft !overhead line
New Line.OH_262871 Bus1=NODE_618856.1.2.3 Bus2=DEV_262884.1.2.3 phases=3 Linecode=lc11 Length=68.000000 units=ft !overhead line
New Line.OH_262872 Bus1=NODE_618856.1.2.3 Bus2=NODE_618864.1.2.3 phases=3 Linecode=lc11 Length=377.000000 units=ft !overhead line
New Line.OH_262873 Bus1=DEV_262875.1.3 Bus2=NODE_618864.1.3 phases=2 Linecode=lc14 Length=483.000000 units=ft !overhead line
New Line.OH_262874 Bus1=NODE_11021973.1.3 Bus2=DEV_262875.1.3 phases=2 Linecode=lc14 Length=293.000000 units=ft !overhead line
New Line.OH_262876 Bus1=NODE_618864.1.2.3 Bus2=DEV_262877.1.2.3 phases=3 Linecode=lc11 Length=126.000000 units=ft !overhead line
New Line.OH_262878 Bus1=DEV_262877.1.2.3 Bus2=DEV_262896.1.2.3 phases=3 Linecode=lc11 Length=426.000000 units=ft !overhead line
New Line.OH_262879 Bus1=DEV_262877.1.2 Bus2=DEV_262880.1.2 phases=2 Linecode=lc14 Length=733.000000 units=ft !overhead line
New Line.OH_262881 Bus1=NODE_618856.1.2.3 Bus2=DEV_262883.1.2.3 phases=3 Linecode=lc8 Length=562.000000 units=ft !overhead line
New Line.OH_262882 Bus1=DEV_262883.1.2.3 Bus2=NODE_11021972.1.2.3 phases=3 Linecode=lc8 Length=390.000000 units=ft !overhead line
New Line.OH_262885 Bus1=NODE_618828.1.2.3 Bus2=DEV_262886.1.2.3 phases=3 Linecode=lc11 Length=13.000000 units=ft !overhead line
New Line.OH_262887 Bus1=DEV_262886.1.2.3 Bus2=NODE_618845.1.2.3 phases=3 Linecode=lc8 Length=89.000000 units=ft !overhead line
New Line.OH_262888 Bus1=NODE_618845.1.2.3 Bus2=DEV_262891.1.2.3 phases=3 Linecode=lc8 Length=176.000000 units=ft !overhead line
New Line.OH_262889 Bus1=DEV_262891.1.2.3 Bus2=DEV_51077013.1.2.3 phases=3 Linecode=lc8 Length=257.000000 units=ft !overhead line
New Line.OH_262894 Bus1=DEV_262896.1.2.3 Bus2=NODE_11021957.1.2.3 phases=3 Linecode=lc11 Length=583.000000 units=ft !overhead line
New Line.OH_262977 Bus1=DEV_263023.1.2.3 Bus2=NODE_11021949.1.2.3 phases=3 Linecode=lc7 Length=325.000000 units=ft !overhead line
New Line.OH_262978 Bus1=DEV_263022.1.2.3 Bus2=DEV_263023.1.2.3 phases=3 Linecode=lc7 Length=269.000000 units=ft !overhead line upgrade 3-phase 336 AAC
New Line.OH_262979 Bus1=DEV_263025.1.2.3 Bus2=DEV_263022.1.2.3 phases=3 Linecode=lc7 Length=166.000000 units=ft !overhead line upgrade 3-phase 336 AAC
New Line.OH_262980 Bus1=NODE_627956.1.2.3 Bus2=DEV_263025.1.2.3 phases=3 Linecode=lc7 Length=324.000000 units=ft !overhead line upgrade 3-phase 336 AAC
New Line.OH_262981 Bus1=DEV_262997.1.2.3 Bus2=NODE_627956.1.2.3 phases=3 Linecode=lc11 Length=259.000000 units=ft !overhead line
New Line.OH_262982 Bus1=DEV_51163410.1.2.3 Bus2=DEV_262997.1.2.3 phases=3 Linecode=lc11 Length=300.000000 units=ft !overhead line
New Line.OH_262983 Bus1=DEV_262996.1.2.3 Bus2=DEV_51163410.1.2.3 phases=3 Linecode=lc11 Length=220.000000 units=ft !overhead line
New Line.OH_262984 Bus1=NODE_627927.1.2.3 Bus2=DEV_262996.1.2.3 phases=3 Linecode=lc11 Length=472.000000 units=ft !overhead line
New Line.OH_262985 Bus1=NODE_31208075.1.2.3 Bus2=NODE_627927.1.2.3 phases=3 Linecode=lc11 Length=176.000000 units=ft !overhead line
New Line.OH_262987 Bus1=DEV_262991.1.2.3 Bus2=NODE_31208075.1.2.3 phases=3 Linecode=lc11 Length=236.000000 units=ft !overhead line
New Line.OH_262988 Bus1=NODE_11021953.1.2.3 Bus2=DEV_262991.1.2.3 phases=3 Linecode=lc11 Length=266.000000 units=ft !overhead line
New Line.OH_262989 Bus1=NODE_11021948.1.2.3 Bus2=DEV_262990.1.2.3 phases=3 Linecode=lc8 Length=103.000000 units=ft !overhead line
New Line.OH_262992 Bus1=NODE_627927.1.2.3 Bus2=DEV_262993.1.2.3 phases=3 Linecode=lc11 Length=619.000000 units=ft !overhead line
New Line.OH_262994 Bus1=DEV_262993.1.2.3 Bus2=DEV_262995.1.2.3 phases=3 Linecode=lc11 Length=149.000000 units=ft !overhead line
New Line.OH_262998 Bus1=NODE_627956.1.2.3 Bus2=DEV_262999.1.2.3 phases=3 Linecode=lc11 Length=471.000000 units=ft !overhead line
New Line.OH_263000 Bus1=DEV_262999.1.2.3 Bus2=DEV_263008.1.2.3 phases=3 Linecode=lc11 Length=458.000000 units=ft !overhead line
New Line.OH_263001 Bus1=DEV_263008.1.2.3 Bus2=NODE_627970.1.2.3 phases=3 Linecode=lc11 Length=161.000000 units=ft !overhead line
New Line.OH_263002 Bus1=NODE_627970.1.2.3 Bus2=DEV_262976.1.2.3 phases=3 Linecode=lc11 Length=278.000000 units=ft !overhead line
New Line.OH_263003 Bus1=DEV_262976.1.2.3 Bus2=DEV_263004.1.2.3 phases=3 Linecode=lc11 Length=355.000000 units=ft !overhead line
New Line.OH_263006 Bus1=NODE_627970.1.3 Bus2=NODE_11021950.1.3 phases=2 Linecode=lc12 Length=41.000000 units=ft !overhead line
New Line.OH_263007 Bus1=NODE_11021950.1.3 Bus2=DEV_261482.1.3 phases=2 Linecode=lc12 Length=390.000000 units=ft !overhead line
New Line.OH_263009 Bus1=NODE_627956.1.2.3 Bus2=NODE_628012.1.2.3 phases=3 Linecode=lc11 Length=227.000000 units=ft !overhead line
New Line.OH_263010 Bus1=NODE_628012.1.2.3 Bus2=NODE_628014.1.2.3 phases=3 Linecode=lc11 Length=238.000000 units=ft !overhead line
New Line.OH_263011 Bus1=NODE_628014.1.2.3 Bus2=DEV_51081604.1.2.3 phases=3 Linecode=lc11 Length=68.000000 units=ft !overhead line
New Line.OH_263013 Bus1=DEV_263012.1.2.3 Bus2=DEV_263015.1.2.3 phases=3 Linecode=lc11 Length=154.000000 units=ft !overhead line
New Line.OH_263014 Bus1=DEV_263015.1.2.3 Bus2=NODE_11021952.1.2.3 phases=3 Linecode=lc11 Length=179.000000 units=ft !overhead line
New Line.OH_263016 Bus1=NODE_628014.1.3 Bus2=DEV_263017.1.3 phases=2 Linecode=lc14 Length=926.000000 units=ft !overhead line
New Line.OH_263018 Bus1=DEV_263017.1.3 Bus2=NODE_11021951.1.3 phases=2 Linecode=lc14 Length=128.000000 units=ft !overhead line
New Line.OH_263019 Bus1=NODE_11021951.1.3 Bus2=PRI_263019.1.3 phases=2 Linecode=lc14 Length=167.000000 units=ft !overhead line
New Line.OH_263020 Bus1=NODE_628014.1.2 Bus2=DEV_263021.1.2 phases=2 Linecode=lc17 Length=586.000000 units=ft !overhead line
New Line.OH_263024 Bus1=DEV_263023.2.3 Bus2=PRI_263024.2.3 phases=2 Linecode=lc14 Length=183.000000 units=ft !overhead line
New Line.OH_263089 Bus1=DEV_263125.1.2.3 Bus2=NODE_11021906.1.2.3 phases=3 Linecode=lc7 Length=307.000000 units=ft !overhead line
New Line.OH_263090 Bus1=DEV_263124.1.2.3 Bus2=DEV_263125.1.2.3 phases=3 Linecode=lc7 Length=292.000000 units=ft !overhead line upgrade 3-phase 336 AAC
New Line.OH_263091 Bus1=NODE_609823.1.2.3 Bus2=DEV_263124.1.2.3 phases=3 Linecode=lc7 Length=154.000000 units=ft !overhead line upgrade 3-phase 336 AAC
New Line.OH_263092 Bus1=DEV_263120.1.2.3 Bus2=NODE_609823.1.2.3 phases=3 Linecode=lc7 Length=304.000000 units=ft !overhead line upgrade 3-phase 336 AAC
New Line.OH_263093 Bus1=NODE_609809.1.2.3 Bus2=DEV_263120.1.2.3 phases=3 Linecode=lc7 Length=147.000000 units=ft !overhead line upgrade 3-phase 336 AAC
New Line.OH_263094 Bus1=NODE_609796.1.2.3 Bus2=DEV_51051935.1.2.3 phases=3 Linecode=lc7 Length=121.000000 units=ft !overhead line upgrade 3-phase 336 AAC
New Line.OH_263095 Bus1=DEV_263112.1.2.3 Bus2=NODE_609796.1.2.3 phases=3 Linecode=lc11 Length=273.000000 units=ft !overhead line
New Line.OH_263096 Bus1=DEV_263109.1.2.3 Bus2=DEV_263112.1.2.3 phases=3 Linecode=lc11 Length=341.000000 units=ft !overhead line
New Line.OH_263097 Bus1=DEV_51118410.1.2.3 Bus2=DEV_263109.1.2.3 phases=3 Linecode=lc11 Length=601.000000 units=ft !overhead line
New Line.OH_263098 Bus1=DEV_51118410.1.2.3 Bus2=NODE_609764.1.2.3 phases=3 Linecode=lc11 Length=160.000000 units=ft !overhead line
New Line.OH_263099 Bus1=DEV_263101.1.2.3 Bus2=NODE_609764.1.2.3 phases=3 Linecode=lc8 Length=176.000000 units=ft !overhead line
New Line.OH_263100 Bus1=NODE_11021947.1.3 Bus2=DEV_263101.1.3 phases=2 Linecode=lc14 Length=146.000000 units=ft !overhead line
New Line.OH_263102 Bus1=DEV_263101.1.2.3 Bus2=DEV_263103.1.2.3 phases=3 Linecode=lc8 Length=151.000000 units=ft !overhead line
New Line.OH_263104 Bus1=NODE_609764.1.2.3 Bus2=NODE_609766.1.2.3 phases=3 Linecode=lc8 Length=179.000000 units=ft !overhead line
New Line.OH_263105 Bus1=NODE_609766.1.2.3 Bus2=DEV_263108.1.2.3 phases=3 Linecode=lc8 Length=219.000000 units=ft !overhead line
New Line.OH_263106 Bus1=DEV_263108.1.2.3 Bus2=DEV_263107.1.2.3 phases=3 Linecode=lc8 Length=211.000000 units=ft !overhead line
New Line.OH_263110 Bus1=DEV_263109.1.2.3 Bus2=DEV_263111.1.2.3 phases=3 Linecode=lc8 Length=373.000000 units=ft !overhead line
New Line.OH_263113 Bus1=NODE_609796.1.2.3 Bus2=NODE_609798.1.2.3 phases=3 Linecode=lc7 Length=272.000000 units=ft !overhead line upgrade 3-phase 336 AAC
New Line.OH_263114 Bus1=NODE_609798.1.2.3 Bus2=DEV_263116.1.2.3 phases=3 Linecode=lc7 Length=113.000000 units=ft !overhead line upgrade 3-phase 336 AAC
New Line.OH_263115 Bus1=DEV_263116.1.2.3 Bus2=NODE_11021949.1.2.3 phases=3 Linecode=lc7 Length=90.000000 units=ft !overhead line upgrade 3-phase 336 AAC
New Line.OH_263118 Bus1=NODE_609819.2.3 Bus2=DEV_263119.2.3 phases=2 Linecode=lc14 Length=201.000000 units=ft !overhead line
New Line.OH_263121 Bus1=NODE_609823.1.2 Bus2=DEV_263123.1.2 phases=2 Linecode=lc14 Length=298.000000 units=ft !overhead line
New Line.OH_263122 Bus1=DEV_263123.1.2 Bus2=PRI_263122.1.2 phases=2 Linecode=lc14 Length=207.000000 units=ft !overhead line
New Line.OH_263135 Bus1=NODE_11021947.1.3 Bus2=DEV_263138.1.3 phases=2 Linecode=lc14 Length=226.000000 units=ft !overhead line
New Line.OH_263136 Bus1=DEV_263138.1.3 Bus2=DEV_263137.1.3 phases=2 Linecode=lc14 Length=206.000000 units=ft !overhead line
New Line.OH_263157 Bus1=DEV_263159.1.2.3 Bus2=NODE_619013.1.2.3 phases=3 Linecode=lc7 Length=499.000000 units=ft !overhead line
New Line.OH_263160 Bus1=NODE_619013.2 Bus2=DEV_263162.2 phases=1 Linecode=lc9 Length=334.000000 units=ft !overhead line
New Line.OH_263163 Bus1=DEV_263162.2 Bus2=DEV_263265.2 phases=1 Linecode=lc9 Length=185.000000 units=ft !overhead line
New Line.OH_263164 Bus1=DEV_263159.1.2.3 Bus2=NODE_11021984.1.2.3 phases=3 Linecode=lc7 Length=264.000000 units=ft !overhead line
New Line.OH_263165 Bus1=NODE_30009200.1.2.3 Bus2=DEV_51092718.1.2.3 phases=3 Linecode=lc7 Length=673.000000 units=ft !overhead line
New Line.OH_263166 Bus1=NODE_619013.1.2.3 Bus2=NODE_30009200.1.2.3 phases=3 Linecode=lc7 Length=333.000000 units=ft !overhead line
New Line.OH_263176 Bus1=NODE_30009200.1.2.3 Bus2=DEV_263168.1.2.3 phases=3 Linecode=lc8 Length=194.000000 units=ft !overhead line
New Line.OH_263187 Bus1=DEV_263363.1.2.3 Bus2=NODE_31189825.1.2.3 phases=3 Linecode=lc8 Length=175.000000 units=ft !overhead line
New Line.OH_263236 Bus1=DEV_263250.1.2.3 Bus2=NODE_625300.1.2.3 phases=3 Linecode=lc7 Length=261.000000 units=ft !overhead line
New Line.OH_263237 Bus1=NODE_625300.1.2.3 Bus2=NODE_625302.1.2.3 phases=3 Linecode=lc7 Length=18.000000 units=ft !overhead line
New Line.OH_263238 Bus1=NODE_625302.1.2.3 Bus2=DEV_263247.1.2.3 phases=3 Linecode=lc7 Length=165.000000 units=ft !overhead line
New Line.OH_263239 Bus1=DEV_263247.1.2.3 Bus2=DEV_263298.1.2.3 phases=3 Linecode=lc7 Length=167.000000 units=ft !overhead line
New Line.OH_263240 Bus1=DEV_263298.1.2.3 Bus2=NODE_625308.1.2.3 phases=3 Linecode=lc7 Length=208.000000 units=ft !overhead line
New Line.OH_263241 Bus1=NODE_625308.1.2.3 Bus2=DEV_263245.1.2.3 phases=3 Linecode=lc7 Length=225.000000 units=ft !overhead line
New Line.OH_263242 Bus1=DEV_263245.1.2.3 Bus2=NODE_625312.1.2.3 phases=3 Linecode=lc7 Length=203.000000 units=ft !overhead line
New Line.OH_263243 Bus1=NODE_625312.1.2.3 Bus2=DEV_263244.1.2.3 phases=3 Linecode=lc7 Length=122.000000 units=ft !overhead line
New Line.OH_263251 Bus1=NODE_625308.1.2.3 Bus2=DEV_263252.1.2.3 phases=3 Linecode=lc8 Length=53.000000 units=ft !overhead line
New Line.OH_263253 Bus1=DEV_263252.1.2.3 Bus2=DEV_263285.1.2.3 phases=3 Linecode=lc8 Length=334.000000 units=ft !overhead line
New Line.OH_263254 Bus1=DEV_263285.1.2.3 Bus2=DEV_263286.1.2.3 phases=3 Linecode=lc8 Length=915.000000 units=ft !overhead line
New Line.OH_263255 Bus1=DEV_263286.1.2.3 Bus2=DEV_263260.1.2.3 phases=3 Linecode=lc8 Length=322.000000 units=ft !overhead line
New Line.OH_263256 Bus1=DEV_263260.1.2.3 Bus2=DEV_263258.1.2.3 phases=3 Linecode=lc8 Length=274.000000 units=ft !overhead line
New Line.OH_263261 Bus1=DEV_263260.1.2.3 Bus2=DEV_263263.1.2.3 phases=3 Linecode=lc8 Length=414.000000 units=ft !overhead line
New Line.OH_263266 Bus1=DEV_263269.1.2.3 Bus2=DEV_263293.1.2.3 phases=3 Linecode=lc8 Length=276.000000 units=ft !overhead line
New Line.OH_263270 Bus1=DEV_263260.1.2.3 Bus2=DEV_263283.1.2.3 phases=3 Linecode=lc8 Length=562.000000 units=ft !overhead line
New Line.OH_263272 Bus1=DEV_263271.1 Bus2=DEV_263274.1 phases=1 Linecode=lc18 Length=444.000000 units=ft !overhead line
New Line.OH_263275 Bus1=DEV_263283.1.2.3 Bus2=DEV_263281.1.2.3 phases=3 Linecode=lc15 Length=418.000000 units=ft !overhead line
New Line.OH_263276 Bus1=DEV_263281.1.3 Bus2=DEV_263279.1.3 phases=2 Linecode=lc14 Length=157.000000 units=ft !overhead line
New Line.OH_263284 Bus1=DEV_263283.1.2.3 Bus2=NODE_30135221.1.2.3 phases=3 Linecode=lc8 Length=257.000000 units=ft !overhead line
New Line.OH_263287 Bus1=DEV_263289.3 Bus2=NODE_31148113.3 phases=1 Linecode=lc9 Length=272.000000 units=ft !overhead line
New Line.OH_263290 Bus1=NODE_11021983.2 Bus2=PRI_263290.2 phases=1 Linecode=lc9 Length=21.000000 units=ft !overhead line
New Line.OH_263291 Bus1=DEV_263244.1.2.3 Bus2=NODE_11021984.1.2.3 phases=3 Linecode=lc7 Length=43.000000 units=ft !overhead line
New Line.OH_263292 Bus1=DEV_263293.1.2.3 Bus2=NODE_11021985.1.2.3 phases=3 Linecode=lc8 Length=15.000000 units=ft !overhead line
New Line.OH_263294 Bus1=DEV_263263.1.2.3 Bus2=NODE_11021986.1.2.3 phases=3 Linecode=lc8 Length=13.000000 units=ft !overhead line
New Line.OH_263295 Bus1=DEV_263258.1.2.3 Bus2=NODE_11021987.1.2.3 phases=3 Linecode=lc8 Length=258.000000 units=ft !overhead line
New Line.OH_263296 Bus1=DEV_263363.1.2.3 Bus2=DEV_263269.1.2.3 phases=3 Linecode=lc8 Length=156.000000 units=ft !overhead line
...
