ProjectFiles/HECO/DSSfiles/linecodes_sec.dss

!New Linecode.OH_1/0_AAC nphases=1
!~ rmatrix=[0.36742424] !ohms per 1000 ft
!~ xmatrix=[0.07856808]
!~ cmatrix=[15]
!~ Normamps=202  {202 1.25 *}
!~ units=kft

New Linecode.OH_1/0_AAC nphases=3 rmatrix=[0.201761667 0.018049545 0.018049545 | 0.018049545 0.201761667 0.018049545 | 0.018049545 0.018049545 0.201761667] 
!ohms per 1000 ft
~ xmatrix=[ 0.285770602	0.254451335 0.246486562 | 0.254451335 0.285770602 0.254451335 |  0.246486562 0.254451335 0.285770602]
~ cmatrix=[15 | -12 15 | -12 -12 15] units=kft
~ Normamps=202  {202 1.25 *}
~ Neutral=2 Kron=yes    ! eliminate the neutral conductor
~ Neutral=2 Kron=yes    ! eliminate the neutral conductor

New Linecode.UG_#2_Al nphases=1
~ rmatrix=[0.29128788] !ohms per 1000 ft
~ xmatrix=[0.0785221]
~ cmatrix=[15]
~ Normamps=230  {230 1.25 *}
~ units=kft


New Linecode.OH_4_AAC nphases=1
~ rmatrix=[0.18333334] !ohms per 1000 ft
~ xmatrix=[0.07840812]
~ cmatrix=[15]
~ Normamps=299  {299 1.25 *}
~ units=kft

New Linecode.OH_4_Cu nphases=3 Units=kft
~ rmatrix=[0.482632879 0.018049545 0.0180495455 | 0.018049545 0.482632879 0.018049545 | 0.018049545 0.018049545 0.482632879] 
~ xmatrix=[0.296365866 0.265053738 0.257088964 | 0.265053738 0.296365866 0.265053738 | 0.257088964 0.265053738 0.296365866]
~ cmatrix=[15 | -12 15 | -0.12 -12 15]
~ Normamps=90  {90 1.25 *}
~ Neutral=2 Kron=Y 
~ Neutral=2 Kron=Y 


New Linecode.UG_3/0 nphases=3 Units=kft
~ rmatrix=[ 0.133769242 0.018049545 0.018049545 | 0.018049545 0.133769242 0.018049545 | 0.018049545 0.018049545 0.133769242] 
~ xmatrix=[ 0.28043632 0.249124191 0.241159418 | 0.249124191 0.28043632 0.249124191 | 0.241159418 0.249124191 0.28043632]
~ cmatrix=[15 | -12 15 | -12 -12 15]
~ Normamps=263  {263 1.25 *}
~ Neutral=2 Kron=Y 
~ Neutral=2 Kron=Y 


New Linecode.UG_2 nphases=3 Units=kft
~ rmatrix=[0.309905606 0.018049545 0.018049545 | 0.018049545 0.309905606 0.018049545 | 0.018049545 0.018049545 0.309905606] 
~ xmatrix=[0.291028536 0.25976762 0.251802847 | 0.25976762 0.291028536 0.25976762 | 0.251802847 0.25976762 0.291028536]
~ cmatrix=[15 | -12 15 | -12 -12 15]
~ Normamps=156  {156 1.25 *}
~ Neutral=2 Kron=Y 
~ Neutral=2 Kron=Y 


New Linecode.UG_350  nphases=3 Units=kft
~ rmatrix=[0.073731364 0.018049545 0.018049545 | 0.018049545 0.073731364 0.018049545 |0.018049545 0.018049545 0.073731364]  
~ xmatrix=[ 0.270684507 0.240374302 0.232409529 | 0.240374302 0.270684507 0.240374302 | 0.232409529 0.240374302 0.270684507 ]
~ cmatrix=[15 | -12 15 | -12 -12 15]
~ Normamps=399  {399 1.25 *}
~ Neutral=2 Kron=Y 
~ Neutral=2 Kron=Y 
