ProjectFiles/HECO/DSSfiles/line_rural_branches.dss
New Line.BB_51067432_0_1 phases=1 bus1=DEV_51067434_TSF50_0.1 bus2=DEV_51067434_0_1.1 linecode=OH_1/0_AAC length=200 units=ft
New Line.OH_260847_1_1 phases=1 bus1=DEV_260853_TSF31_1.1 bus2=DEV_260853_1_1.1 linecode=OH_1/0_AAC length=200 units=ft
New Line.OH_260847_2_1 phases=1 bus1=DEV_260853_TSF31_2.3 bus2=DEV_260853_2_1.3 linecode=OH_1/0_AAC length=200 units=ft
New Line.OH_260849_1_1 phases=1 bus1=DEV_260852_TSF12_1.1 bus2=DEV_260852_1_1.1 linecode=OH_1/0_AAC length=200 units=ft
New Line.OH_260849_2_1 phases=1 bus1=DEV_260852_TSF12_2.2 bus2=DEV_260852_2_1.2 linecode=OH_1/0_AAC length=200 units=ft
New Line.OH_260850_1_1 phases=1 bus1=DEV_260851_TSF12_1.1 bus2=DEV_260851_1_1.1 linecode=OH_1/0_AAC length=200 units=ft
New Line.OH_260850_1_2 phases=1 bus1=DEV_260851_1_1.1 bus2=DEV_260851_1_2.1 linecode=OH_1/0_AAC length=200 units=ft
New Line.OH_260850_2_1 phases=1 bus1=DEV_260851_TSF12_2.3 bus2=DEV_260851_2_1.3 linecode=OH_1/0_AAC length=200 units=ft
New Line.OH_260850_2_2 phases=1 bus1=DEV_260851_2_1.3 bus2=DEV_260851_2_2.3 linecode=OH_1/0_AAC length=200 units=ft
New Line.OH_260930_1_1 phases=1 bus1=DEV_51187136_TSF43_1.1 bus2=DEV_51187136_1_1.1 linecode=OH_1/0_AAC length=200 units=ft
New Line.OH_260930_1_2 phases=1 bus1=DEV_51187136_1_1.1 bus2=DEV_51187136_1_2.1 linecode=OH_1/0_AAC length=200 units=ft
New Line.OH_260930_2_1 phases=1 bus1=DEV_51187136_TSF43_2.3 bus2=DEV_51187136_2_1.3 linecode=OH_1/0_AAC length=200 units=ft
New Line.OH_260930_2_2 phases=1 bus1=DEV_51187136_2_1.3 bus2=DEV_51187136_2_2.3 linecode=OH_1/0_AAC length=200 units=ft
New Line.OH_260932_1_1 phases=1 bus1=DEV_260933_TSF7_1.1 bus2=DEV_260933_1_1.1 linecode=OH_1/0_AAC length=200 units=ft
New Line.OH_260932_2_1 phases=1 bus1=DEV_260933_TSF7_2.3 bus2=DEV_260933_2_1.3 linecode=OH_1/0_AAC length=200 units=ft
New Line.OH_260937_1_1 phases=1 bus1=NODE_630695_TSF12_1.1 bus2=NODE_630695_1_1.1 linecode=OH_1/0_AAC length=200 units=ft
New Line.OH_260937_2_1 phases=1 bus1=NODE_630695_TSF12_2.3 bus2=NODE_630695_2_1.3 linecode=OH_1/0_AAC length=200 units=ft
New Line.OH_260945_0_1 phases=1 bus1=NODE_630695_TSF25_0.3 bus2=NODE_630695_0_1.3 linecode=OH_1/0_AAC length=200 units=ft
New Line.OH_260945_0_2 phases=1 bus1=NODE_630695_0_1.3 bus2=NODE_630695_0_2.3 linecode=OH_1/0_AAC length=200 units=ft
New Line.OH_260946_0_1 phases=1 bus1=DEV_260949_TSF25_0.1 bus2=DEV_260949_0_1.1 linecode=OH_1/0_AAC length=200 units=ft
New Line.OH_260946_0_2 phases=1 bus1=DEV_260949_0_1.1 bus2=DEV_260949_0_2.1 linecode=OH_1/0_AAC length=200 units=ft
New Line.OH_260946_0_3 phases=1 bus1=DEV_260949_0_2.1 bus2=DEV_260949_0_3.1 linecode=OH_1/0_AAC length=200 units=ft
New Line.OH_260946_0_4 phases=1 bus1=DEV_260949_0_3.1 bus2=DEV_260949_0_4.1 linecode=OH_1/0_AAC length=200 units=ft
New Line.OH_260946_0_5 phases=1 bus1=DEV_260949_0_4.1 bus2=DEV_260949_0_5.1 linecode=OH_1/0_AAC length=200 units=ft
New Line.OH_260946_0_6 phases=1 bus1=DEV_260949_TSF25_0.1 bus2=DEV_260949_0_6.1 linecode=OH_1/0_AAC length=200 units=ft
New Line.OH_260946_0_7 phases=1 bus1=DEV_260949_0_6.1 bus2=DEV_260949_0_7.1 linecode=OH_1/0_AAC length=200 units=ft
New Line.OH_261400_1_1 phases=1 bus1=NODE_11021972_TSF12_1.1 bus2=NODE_11021972_1_1.1 linecode=OH_1/0_AAC length=200 units=ft
New Line.OH_261400_1_2 phases=1 bus1=NODE_11021972_1_1.1 bus2=NODE_11021972_1_2.1 linecode=OH_1/0_AAC length=200 units=ft
New Line.OH_261400_2_1 phases=1 bus1=NODE_11021972_TSF12_2.2 bus2=NODE_11021972_2_1.2 linecode=OH_1/0_AAC length=200 units=ft
New Line.OH_261400_2_2 phases=1 bus1=NODE_11021972_2_1.2 bus2=NODE_11021972_2_2.2 linecode=OH_1/0_AAC length=200 units=ft
New Line.OH_261479_1_1 phases=1 bus1=DEV_261481_TSF25_1.1 bus2=DEV_261481_1_1.1 linecode=OH_1/0_AAC length=200 units=ft
New Line.OH_261479_1_2 phases=1 bus1=DEV_261481_1_1.1 bus2=DEV_261481_1_2.1 linecode=OH_1/0_AAC length=200 units=ft
New Line.OH_261479_1_3 phases=1 bus1=DEV_261481_1_2.1 bus2=DEV_261481_1_3.1 linecode=OH_1/0_AAC length=200 units=ft
New Line.OH_261479_2_1 phases=1 bus1=DEV_261481_TSF25_2.3 bus2=DEV_261481_2_1.3 linecode=OH_1/0_AAC length=200 units=ft
New Line.OH_261479_2_2 phases=1 bus1=DEV_261481_2_1.3 bus2=DEV_261481_2_2.3 linecode=OH_1/0_AAC length=200 units=ft
New Line.OH_261479_2_3 phases=1 bus1=DEV_261481_2_2.3 bus2=DEV_261481_2_3.3 linecode=OH_1/0_AAC length=200 units=ft
New Line.OH_261483_1_1 phases=1 bus1=DEV_261484_TSF7_1.1 bus2=DEV_261484_1_1.1 linecode=OH_1/0_AAC length=200 units=ft
New Line.OH_261483_1_2 phases=1 bus1=DEV_261484_1_1.1 bus2=DEV_261484_1_2.1 linecode=OH_1/0_AAC length=200 units=ft
New Line.OH_261483_1_3 phases=1 bus1=DEV_261484_1_2.1 bus2=DEV_261484_1_3.1 linecode=OH_1/0_AAC length=200 units=ft
New Line.OH_261483_2_1 phases=1 bus1=DEV_261484_TSF7_2.2 bus2=DEV_261484_2_1.2 linecode=OH_1/0_AAC length=200 units=ft
New Line.OH_261483_2_2 phases=1 bus1=DEV_261484_2_1.2 bus2=DEV_261484_2_2.2 linecode=OH_1/0_AAC length=200 units=ft
New Line.OH_261483_2_3 phases=1 bus1=DEV_261484_2_2.2 bus2=DEV_261484_2_3.2 linecode=OH_1/0_AAC length=200 units=ft
New Line.OH_261486_1_1 phases=1 bus1=DEV_261487_TSF18_1.1 bus2=DEV_261487_1_1.1 linecode=OH_1/0_AAC length=200 units=ft
New Line.OH_261486_1_2 phases=1 bus1=DEV_261487_1_1.1 bus2=DEV_261487_1_2.1 linecode=OH_1/0_AAC length=200 units=ft
New Line.OH_261486_1_3 phases=1 bus1=DEV_261487_1_2.1 bus2=DEV_261487_1_3.1 linecode=OH_1/0_AAC length=200 units=ft
New Line.OH_261486_1_4 phases=1 bus1=DEV_261487_1_3.1 bus2=DEV_261487_1_4.1 linecode=OH_1/0_AAC length=200 units=ft
New Line.OH_261486_2_1 phases=1 bus1=DEV_261487_TSF18_2.2 bus2=DEV_261487_2_1.2 linecode=OH_1/0_AAC length=200 units=ft
New Line.OH_261486_2_2 phases=1 bus1=DEV_261487_2_1.2 bus2=DEV_261487_2_2.2 linecode=OH_1/0_AAC length=200 units=ft
New Line.OH_261486_2_3 phases=1 bus1=DEV_261487_2_2.2 bus2=DEV_261487_2_3.2 linecode=OH_1/0_AAC length=200 units=ft
New Line.OH_261486_2_4 phases=1 bus1=DEV_261487_2_3.2 bus2=DEV_261487_2_4.2 linecode=OH_1/0_AAC length=200 units=ft
New Line.OH_261488_1_1 phases=1 bus1=DEV_261490_TSF25_1.1 bus2=DEV_261490_1_1.1 linecode=OH_1/0_AAC length=200 units=ft
New Line.OH_261488_2_1 phases=1 bus1=DEV_261490_TSF25_2.3 bus2=DEV_261490_2_1.3 linecode=OH_1/0_AAC length=200 units=ft
New Line.OH_261535_0_1 phases=1 bus1=DEV_261606_TSF25_0.1 bus2=DEV_261606_0_1.1 linecode=OH_1/0_AAC length=200 units=ft
New Line.OH_261535_0_2 phases=1 bus1=DEV_261606_0_1.1 bus2=DEV_261606_0_2.1 linecode=OH_1/0_AAC length=200 units=ft
New Line.OH_261535_0_3 phases=1 bus1=DEV_261606_0_2.1 bus2=DEV_261606_0_3.1 linecode=OH_1/0_AAC length=200 units=ft
New Line.OH_261535_0_4 phases=1 bus1=DEV_261606_0_3.1 bus2=DEV_261606_0_4.1 linecode=OH_1/0_AAC length=200 units=ft
New Line.OH_261535_0_5 phases=1 bus1=DEV_261606_0_4.1 bus2=DEV_261606_0_5.1 linecode=OH_1/0_AAC length=200 units=ft
New Line.OH_261573_1_1 phases=1 bus1=DEV_261608_TSF12_1.2 bus2=DEV_261608_1_1.2 linecode=OH_1/0_AAC length=200 units=ft
New Line.OH_261573_1_2 phases=1 bus1=DEV_261608_1_1.2 bus2=DEV_261608_1_2.2 linecode=OH_1/0_AAC length=200 units=ft
New Line.OH_261573_2_1 phases=1 bus1=DEV_261608_TSF12_2.3 bus2=DEV_261608_2_1.3 linecode=OH_1/0_AAC length=200 units=ft
New Line.OH_261573_2_2 phases=1 bus1=DEV_261608_2_1.3 bus2=DEV_261608_2_2.3 linecode=OH_1/0_AAC length=200 units=ft
New Line.OH_261576_1_1 phases=1 bus1=NODE_609861_TSF12_1.1 bus2=NODE_609861_1_1.1 linecode=OH_1/0_AAC length=200 units=ft
New Line.OH_261576_1_2 phases=1 bus1=NODE_609861_1_1.1 bus2=NODE_609861_1_2.1 linecode=OH_1/0_AAC length=200 units=ft
New Line.OH_261576_1_3 phases=1 bus1=NODE_609861_1_2.1 bus2=NODE_609861_1_3.1 linecode=OH_1/0_AAC length=200 units=ft
New Line.OH_261576_2_1 phases=1 bus1=NODE_609861_TSF12_2.3 bus2=NODE_609861_2_1.3 linecode=OH_1/0_AAC length=200 units=ft
New Line.OH_261576_2_2 phases=1 bus1=NODE_609861_2_1.3 bus2=NODE_609861_2_2.3 linecode=OH_1/0_AAC length=200 units=ft
New Line.OH_261576_2_3 phases=1 bus1=NODE_609861_2_2.3 bus2=NODE_609861_2_3.3 linecode=OH_1/0_AAC length=200 units=ft
New Line.OH_261579_1_1 phases=1 bus1=NODE_609855_TSF12_1.1 bus2=NODE_609855_1_1.1 linecode=OH_1/0_AAC length=200 units=ft
New Line.OH_261579_1_2 phases=1 bus1=NODE_609855_1_1.1 bus2=NODE_609855_1_2.1 linecode=OH_1/0_AAC length=200 units=ft
New Line.OH_261579_2_1 phases=1 bus1=NODE_609855_TSF12_2.3 bus2=NODE_609855_2_1.3 linecode=OH_1/0_AAC length=200 units=ft
New Line.OH_261579_2_2 phases=1 bus1=NODE_609855_2_1.3 bus2=NODE_609855_2_2.3 linecode=OH_1/0_AAC length=200 units=ft
New Line.OH_261584_1_1 phases=1 bus1=DEV_261585_TSF18_1.1 bus2=DEV_261585_1_1.1 linecode=OH_1/0_AAC length=200 units=ft
New Line.OH_261584_1_2 phases=1 bus1=DEV_261585_1_1.1 bus2=DEV_261585_1_2.1 linecode=OH_1/0_AAC length=200 units=ft
New Line.OH_261584_1_3 phases=1 bus1=DEV_261585_1_2.1 bus2=DEV_261585_1_3.1 linecode=OH_1/0_AAC length=200 units=ft
New Line.OH_261584_1_4 phases=1 bus1=DEV_261585_1_3.1 bus2=DEV_261585_1_4.1 linecode=OH_1/0_AAC length=200 units=ft
New Line.OH_261584_2_1 phases=1 bus1=DEV_261585_TSF18_2.3 bus2=DEV_261585_2_1.3 linecode=OH_1/0_AAC length=200 units=ft
New Line.OH_261584_2_2 phases=1 bus1=DEV_261585_2_1.3 bus2=DEV_261585_2_2.3 linecode=OH_1/0_AAC length=200 units=ft
New Line.OH_261584_2_3 phases=1 bus1=DEV_261585_2_2.3 bus2=DEV_261585_2_3.3 linecode=OH_1/0_AAC length=200 units=ft
New Line.OH_261584_2_4 phases=1 bus1=DEV_261585_2_3.3 bus2=DEV_261585_2_4.3 linecode=OH_1/0_AAC length=200 units=ft
New Line.OH_261589_1_1 phases=1 bus1=DEV_261611_TSF12_1.2 bus2=DEV_261611_1_1.2 linecode=OH_1/0_AAC length=200 units=ft
New Line.OH_261589_1_2 phases=1 bus1=DEV_261611_1_1.2 bus2=DEV_261611_1_2.2 linecode=OH_1/0_AAC length=200 units=ft
New Line.OH_261589_1_3 phases=1 bus1=DEV_261611_1_2.2 bus2=DEV_261611_1_3.2 linecode=OH_1/0_AAC length=200 units=ft
New Line.OH_261589_2_1 phases=1 bus1=DEV_261611_TSF12_2.3 bus2=DEV_261611_2_1.3 linecode=OH_1/0_AAC length=200 units=ft
New Line.OH_261589_2_2 phases=1 bus1=DEV_261611_2_1.3 bus2=DEV_261611_2_2.3 linecode=OH_1/0_AAC length=200 units=ft
New Line.OH_261589_2_3 phases=1 bus1=DEV_261611_2_2.3 bus2=DEV_261611_2_3.3 linecode=OH_1/0_AAC length=200 units=ft
New Line.OH_261592_1_1 phases=1 bus1=DEV_261610_TSF25_1.1 bus2=DEV_261610_1_1.1 linecode=OH_1/0_AAC length=200 units=ft
New Line.OH_261592_1_2 phases=1 bus1=DEV_261610_1_1.1 bus2=DEV_261610_1_2.1 linecode=OH_1/0_AAC length=200 units=ft
New Line.OH_261592_1_3 phases=1 bus1=DEV_261610_1_2.1 bus2=DEV_261610_1_3.1 linecode=OH_1/0_AAC length=200 units=ft
New Line.OH_261592_2_1 phases=1 bus1=DEV_261610_TSF25_2.3 bus2=DEV_261610_2_1.3 linecode=OH_1/0_AAC length=200 units=ft
New Line.OH_261592_2_2 phases=1 bus1=DEV_261610_2_1.3 bus2=DEV_261610_2_2.3 linecode=OH_1/0_AAC length=200 units=ft
New Line.OH_261592_2_3 phases=1 bus1=DEV_261610_2_2.3 bus2=DEV_261610_2_3.3 linecode=OH_1/0_AAC length=200 units=ft
New Line.OH_261596_1_1 phases=1 bus1=DEV_261619_TSF12_1.1 bus2=DEV_261619_1_1.1 linecode=OH_1/0_AAC length=200 units=ft
New Line.OH_261596_2_1 phases=1 bus1=DEV_261619_TSF12_2.3 bus2=DEV_261619_2_1.3 linecode=OH_1/0_AAC length=200 units=ft
New Line.OH_261604_1_1 phases=1 bus1=DEV_261599_TSF12_1.1 bus2=DEV_261599_1_1.1 linecode=OH_1/0_AAC length=200 units=ft
New Line.OH_261604_1_2 phases=1 bus1=DEV_261599_1_1.1 bus2=DEV_261599_1_2.1 linecode=OH_1/0_AAC length=200 units=ft
New Line.OH_261604_1_3 phases=1 bus1=DEV_261599_1_2.1 bus2=DEV_261599_1_3.1 linecode=OH_1/0_AAC length=200 units=ft
New Line.OH_261604_1_4 phases=1 bus1=DEV_261599_1_3.1 bus2=DEV_261599_1_4.1 linecode=OH_1/0_AAC length=200 units=ft
New Line.OH_261604_2_1 phases=1 bus1=DEV_261599_TSF12_2.3 bus2=DEV_261599_2_1.3 linecode=OH_1/0_AAC length=200 units=ft
New Line.OH_261604_2_2 phases=1 bus1=DEV_261599_2_1.3 bus2=DEV_261599_2_2.3 linecode=OH_1/0_AAC length=200 units=ft
New Line.OH_261604_2_3 phases=1 bus1=DEV_261599_2_2.3 bus2=DEV_261599_2_3.3 linecode=OH_1/0_AAC length=200 units=ft
New Line.OH_261604_2_4 phases=1 bus1=DEV_261599_2_3.3 bus2=DEV_261599_2_4.3 linecode=OH_1/0_AAC length=200 units=ft
New Line.OH_261663_0_1 phases=1 bus1=DEV_261702_TSF25_0.1 bus2=DEV_261702_0_1.1 linecode=OH_1/0_AAC length=200 units=ft
New Line.OH_261663_0_2 phases=1 bus1=DEV_261702_0_1.1 bus2=DEV_261702_0_2.1 linecode=OH_1/0_AAC length=200 units=ft
New Line.OH_261663_0_3 phases=1 bus1=DEV_261702_0_2.1 bus2=DEV_261702_0_3.1 linecode=OH_1/0_AAC length=200 units=ft
New Line.OH_261663_0_4 phases=1 bus1=DEV_261702_0_3.1 bus2=DEV_261702_0_4.1 linecode=OH_1/0_AAC length=200 units=ft
New Line.OH_261663_0_5 phases=1 bus1=DEV_261702_0_4.1 bus2=DEV_261702_0_5.1 linecode=OH_1/0_AAC length=200 units=ft
New Line.OH_261663_0_6 phases=1 bus1=DEV_261702_TSF25_0.1 bus2=DEV_261702_0_6.1 linecode=OH_1/0_AAC length=200 units=ft
New Line.OH_261664_0_1 phases=1 bus1=DEV_261701_TSF25_0.2 bus2=DEV_261701_0_1.2 linecode=OH_1/0_AAC length=200 units=ft
New Line.OH_261664_0_2 phases=1 bus1=DEV_261701_0_1.2 bus2=DEV_261701_0_2.2 linecode=OH_1/0_AAC length=200 units=ft
New Line.OH_261666_0_1 phases=1 bus1=NODE_11021904_TSF50_0.3 bus2=NODE_11021904_0_1.3 linecode=OH_1/0_AAC length=200 units=ft
New Line.OH_261666_0_2 phases=1 bus1=NODE_11021904_0_1.3 bus2=NODE_11021904_0_2.3 linecode=OH_1/0_AAC length=200 units=ft
New Line.OH_261666_0_3 phases=1 bus1=NODE_11021904_0_2.3 bus2=NODE_11021904_0_3.3 linecode=OH_1/0_AAC length=200 units=ft
New Line.OH_261666_0_4 phases=1 bus1=NODE_11021904_0_3.3 bus2=NODE_11021904_0_4.3 linecode=OH_1/0_AAC length=200 units=ft
New Line.OH_261666_0_5 phases=1 bus1=NODE_11021904_0_4.3 bus2=NODE_11021904_0_5.3 linecode=OH_1/0_AAC length=200 units=ft
New Line.OH_261666_0_6 phases=1 bus1=NODE_11021904_TSF50_0.3 bus2=NODE_11021904_0_6.3 linecode=OH_1/0_AAC length=200 units=ft
New Line.OH_261666_0_7 phases=1 bus1=NODE_11021904_0_6.3 bus2=NODE_11021904_0_7.3 linecode=OH_1/0_AAC length=200 units=ft
New Line.OH_261691_1_1 phases=1 bus1=DEV_261698_TSF12_1.2 bus2=DEV_261698_1_1.2 linecode=OH_1/0_AAC length=200 units=ft
New Line.OH_261691_1_2 phases=1 bus1=DEV_261698_1_1.2 bus2=DEV_261698_1_2.2 linecode=OH_1/0_AAC length=200 units=ft
New Line.OH_261691_2_1 phases=1 bus1=DEV_261698_TSF12_2.3 bus2=DEV_261698_2_1.3 linecode=OH_1/0_AAC length=200 units=ft
New Line.OH_261691_2_2 phases=1 bus1=DEV_261698_2_1.3 bus2=DEV_261698_2_2.3 linecode=OH_1/0_AAC length=200 units=ft
New Line.OH_261709_1_1 phases=1 bus1=NODE_619119_TSF12_1.1 bus2=NODE_619119_1_1.1 linecode=OH_1/0_AAC length=200 units=ft
New Line.OH_261709_2_1 phases=1 bus1=NODE_619119_TSF12_2.2 bus2=NODE_619119_2_1.2 linecode=OH_1/0_AAC length=200 units=ft
New Line.OH_261747_0_1 phases=1 bus1=DEV_261736_TSF25_0.1 bus2=DEV_261736_0_1.1 linecode=OH_1/0_AAC length=200 units=ft
New Line.OH_261747_0_2 phases=1 bus1=DEV_261736_0_1.1 bus2=DEV_261736_0_2.1 linecode=OH_1/0_AAC length=200 units=ft
New Line.OH_261847_0_1 phases=1 bus1=DEV_261851_TSF75_0.1 bus2=DEV_261851_0_1.1 linecode=OH_1/0_AAC length=200 units=ft
New Line.OH_261847_0_2 phases=1 bus1=DEV_261851_0_1.1 bus2=DEV_261851_0_2.1 linecode=OH_1/0_AAC length=200 units=ft
New Line.OH_261847_0_3 phases=1 bus1=DEV_261851_0_2.1 bus2=DEV_261851_0_3.1 linecode=OH_1/0_AAC length=200 units=ft
New Line.OH_261847_0_4 phases=1 bus1=DEV_261851_0_3.1 bus2=DEV_261851_0_4.1 linecode=OH_1/0_AAC length=200 units=ft
New Line.OH_261847_0_5 phases=1 bus1=DEV_261851_0_4.1 bus2=DEV_261851_0_5.1 linecode=OH_1/0_AAC length=200 units=ft
New Line.OH_262646_1_1 phases=1 bus1=NODE_11021965_TSF12_1.2 bus2=NODE_11021965_1_1.2 linecode=OH_1/0_AAC length=200 units=ft
New Line.OH_262646_1_2 phases=1 bus1=NODE_11021965_1_1.2 bus2=NODE_11021965_1_2.2 linecode=OH_1/0_AAC length=200 units=ft
New Line.OH_262646_1_3 phases=1 bus1=NODE_11021965_1_2.2 bus2=NODE_11021965_1_3.2 linecode=OH_1/0_AAC length=200 units=ft
New Line.OH_262646_1_4 phases=1 bus1=NODE_11021965_1_3.2 bus2=NODE_11021965_1_4.2 linecode=OH_1/0_AAC length=200 units=ft
New Line.OH_262646_2_1 phases=1 bus1=NODE_11021965_TSF12_2.3 bus2=NODE_11021965_2_1.3 linecode=OH_1/0_AAC length=200 units=ft
New Line.OH_262646_2_2 phases=1 bus1=NODE_11021965_2_1.3 bus2=NODE_11021965_2_2.3 linecode=OH_1/0_AAC length=200 units=ft
New Line.OH_262646_2_3 phases=1 bus1=NODE_11021965_2_2.3 bus2=NODE_11021965_2_3.3 linecode=OH_1/0_AAC length=200 units=ft
New Line.OH_262646_2_4 phases=1 bus1=NODE_11021965_2_3.3 bus2=NODE_11021965_2_4.3 linecode=OH_1/0_AAC length=200 units=ft
New Line.OH_262648_1_1 phases=1 bus1=NODE_619037_TSF12_1.1 bus2=NODE_619037_1_1.1 linecode=OH_1/0_AAC length=200 units=ft
New Line.OH_262648_2_1 phases=1 bus1=NODE_619037_TSF12_2.3 bus2=NODE_619037_2_1.3 linecode=OH_1/0_AAC length=200 units=ft
New Line.OH_262654_1_1 phases=1 bus1=DEV_262689_TSF20_1.1 bus2=DEV_262689_1_1.1 linecode=OH_1/0_AAC length=200 units=ft
New Line.OH_262654_2_1 phases=1 bus1=DEV_262689_TSF20_2.3 bus2=DEV_262689_2_1.3 linecode=OH_1/0_AAC length=200 units=ft
New Line.OH_262655_1_1 phases=1 bus1=DEV_262688_TSF12_1.1 bus2=DEV_262688_1_1.1 linecode=OH_1/0_AAC length=200 units=ft
New Line.OH_262655_1_2 phases=1 bus1=DEV_262688_1_1.1 bus2=DEV_262688_1_2.1 linecode=OH_1/0_AAC length=200 units=ft
New Line.OH_262655_1_3 phases=1 bus1=DEV_262688_1_2.1 bus2=DEV_262688_1_3.1 linecode=OH_1/0_AAC length=200 units=ft
New Line.OH_262655_2_1 phases=1 bus1=DEV_262688_TSF12_2.3 bus2=DEV_262688_2_1.3 linecode=OH_1/0_AAC length=200 units=ft
New Line.OH_262655_2_2 phases=1 bus1=DEV_262688_2_1.3 bus2=DEV_262688_2_2.3 linecode=OH_1/0_AAC length=200 units=ft
New Line.OH_262655_2_3 phases=1 bus1=DEV_262688_2_2.3 bus2=DEV_262688_2_3.3 linecode=OH_1/0_AAC length=200 units=ft
New Line.OH_262657_1_1 phases=1 bus1=DEV_51117467_TSF12_1.1 bus2=DEV_51117467_1_1.1 linecode=OH_1/0_AAC length=200 units=ft
New Line.OH_262657_2_1 phases=1 bus1=DEV_51117467_TSF12_2.3 bus2=DEV_51117467_2_1.3 linecode=OH_1/0_AAC length=200 units=ft
New Line.OH_262662_1_1 phases=1 bus1=NODE_11021961_TSF7_1.1 bus2=NODE_11021961_1_1.1 linecode=OH_1/0_AAC length=200 units=ft
New Line.OH_262662_2_1 phases=1 bus1=NODE_11021961_TSF7_2.3 bus2=NODE_11021961_2_1.3 linecode=OH_1/0_AAC length=200 units=ft
New Line.OH_262673_0_1 phases=1 bus1=DEV_51079464_TSF25_0.3 bus2=DEV_51079464_0_1.3 linecode=OH_1/0_AAC length=200 units=ft
New Line.OH_262673_0_2 phases=1 bus1=DEV_51079464_0_1.3 bus2=DEV_51079464_0_2.3 linecode=OH_1/0_AAC length=200 units=ft
New Line.OH_262673_0_3 phases=1 bus1=DEV_51079464_0_2.3 bus2=DEV_51079464_0_3.3 linecode=OH_1/0_AAC length=200 units=ft
New Line.OH_262673_0_4 phases=1 bus1=DEV_51079464_0_3.3 bus2=DEV_51079464_0_4.3 linecode=OH_1/0_AAC length=200 units=ft
New Line.OH_262752_0_1 phases=1 bus1=DEV_51071988_TSF25_0.2 bus2=DEV_51071988_0_1.2 linecode=OH_1/0_AAC length=200 units=ft
New Line.OH_262864_1_1 phases=1 bus1=NODE_11021955_TSF12_1.1 bus2=NODE_11021955_1_1.1 linecode=OH_1/0_AAC length=200 units=ft
New Line.OH_262864_2_1 phases=1 bus1=NODE_11021955_TSF12_2.3 bus2=NODE_11021955_2_1.3 linecode=OH_1/0_AAC length=200 units=ft
New Line.OH_262868_0_1 phases=1 bus1=NODE_11021952_TSF25_0.1 bus2=NODE_11021952_0_1.1 linecode=OH_1/0_AAC length=200 units=ft
New Line.OH_262868_0_2 phases=1 bus1=NODE_11021952_0_1.1 bus2=NODE_11021952_0_2.1 linecode=OH_1/0_AAC length=200 units=ft
New Line.OH_262870_1_1 phases=1 bus1=NODE_618828_TSF12_1.1 bus2=NODE_618828_1_1.1 linecode=OH_1/0_AAC length=200 units=ft
New Line.OH_262870_2_1 phases=1 bus1=NODE_618828_TSF12_2.2 bus2=NODE_618828_2_1.2 linecode=OH_1/0_AAC length=200 units=ft
New Line.OH_262873_1_1 phases=1 bus1=NODE_618864_TSF7_1.1 bus2=NODE_618864_1_1.1 linecode=OH_1/0_AAC length=200 units=ft
New Line.OH_262873_1_2 phases=1 bus1=NODE_618864_1_1.1 bus2=NODE_618864_1_2.1 linecode=OH_1/0_AAC length=200 units=ft
New Line.OH_262873_2_1 phases=1 bus1=NODE_618864_TSF7_2.3 bus2=NODE_618864_2_1.3 linecode=OH_1/0_AAC length=200 units=ft
New Line.OH_262873_2_2 phases=1 bus1=NODE_618864_2_1.3 bus2=NODE_618864_2_2.3 linecode=OH_1/0_AAC length=200 units=ft
New Line.OH_262876_1_1 phases=1 bus1=DEV_262877_TSF25_1.1 bus2=DEV_262877_1_1.1 linecode=OH_1/0_AAC length=200 units=ft
New Line.OH_262876_1_2 phases=1 bus1=DEV_262877_1_1.1 bus2=DEV_262877_1_2.1 linecode=OH_1/0_AAC length=200 units=ft
New Line.OH_262876_1_3 phases=1 bus1=DEV_262877_1_2.1 bus2=DEV_262877_1_3.1 linecode=OH_1/0_AAC length=200 units=ft
New Line.OH_262876_1_4 phases=1 bus1=DEV_262877_1_3.1 bus2=DEV_262877_1_4.1 linecode=OH_1/0_AAC length=200 units=ft
New Line.OH_262876_1_5 phases=1 bus1=DEV_262877_1_4.1 bus2=DEV_262877_1_5.1 linecode=OH_1/0_AAC length=200 units=ft
New Line.OH_262876_1_6 phases=1 bus1=DEV_262877_TSF25_1.1 bus2=DEV_262877_1_6.1 linecode=OH_1/0_AAC length=200 units=ft
New Line.OH_262876_1_7 phases=1 bus1=DEV_262877_1_6.1 bus2=DEV_262877_1_7.1 linecode=OH_1/0_AAC length=200 units=ft
New Line.OH_262876_2_1 phases=1 bus1=DEV_262877_TSF25_2.3 bus2=DEV_262877_2_1.3 linecode=OH_1/0_AAC length=200 units=ft
New Line.OH_262876_2_2 phases=1 bus1=DEV_262877_2_1.3 bus2=DEV_262877_2_2.3 linecode=OH_1/0_AAC length=200 units=ft
New Line.OH_262876_2_3 phases=1 bus1=DEV_262877_2_2.3 bus2=DEV_262877_2_3.3 linecode=OH_1/0_AAC length=200 units=ft
New Line.OH_262876_2_4 phases=1 bus1=DEV_262877_2_3.3 bus2=DEV_262877_2_4.3 linecode=OH_1/0_AAC length=200 units=ft
New Line.OH_262876_2_5 phases=1 bus1=DEV_262877_2_4.3 bus2=DEV_262877_2_5.3 linecode=OH_1/0_AAC length=200 units=ft
New Line.OH_262876_2_6 phases=1 bus1=DEV_262877_TSF25_2.3 bus2=DEV_262877_2_6.3 linecode=OH_1/0_AAC length=200 units=ft
New Line.OH_262876_2_7 phases=1 bus1=DEV_262877_2_6.3 bus2=DEV_262877_2_7.3 linecode=OH_1/0_AAC length=200 units=ft
New Line.OH_262881_1_1 phases=1 bus1=DEV_262883_TSF25_1.1 bus2=DEV_262883_1_1.1 linecode=OH_1/0_AAC length=200 units=ft
New Line.OH_262881_1_2 phases=1 bus1=DEV_262883_1_1.1 bus2=DEV_262883_1_2.1 linecode=OH_1/0_AAC length=200 units=ft
New Line.OH_262881_1_3 phases=1 bus1=DEV_262883_1_2.1 bus2=DEV_262883_1_3.1 linecode=OH_1/0_AAC length=200 units=ft
New Line.OH_262881_2_1 phases=1 bus1=DEV_262883_TSF25_2.2 bus2=DEV_262883_2_1.2 linecode=OH_1/0_AAC length=200 units=ft
New Line.OH_262881_2_2 phases=1 bus1=DEV_262883_2_1.2 bus2=DEV_262883_2_2.2 linecode=OH_1/0_AAC length=200 units=ft
New Line.OH_262881_2_3 phases=1 bus1=DEV_262883_2_2.2 bus2=DEV_262883_2_3.2 linecode=OH_1/0_AAC length=200 units=ft
New Line.OH_262888_0_1 phases=1 bus1=DEV_262891_TSF37_0.3 bus2=DEV_262891_0_1.3 linecode=OH_1/0_AAC length=200 units=ft
New Line.OH_262888_0_2 phases=1 bus1=DEV_262891_0_1.3 bus2=DEV_262891_0_2.3 linecode=OH_1/0_AAC length=200 units=ft
New Line.OH_262888_0_3 phases=1 bus1=DEV_262891_0_2.3 bus2=DEV_262891_0_3.3 linecode=OH_1/0_AAC length=200 units=ft
New Line.OH_262978_1_1 phases=1 bus1=DEV_263023_TSF12_1.1 bus2=DEV_263023_1_1.1 linecode=OH_1/0_AAC length=200 units=ft
New Line.OH_262978_1_2 phases=1 bus1=DEV_263023_1_1.1 bus2=DEV_263023_1_2.1 linecode=OH_1/0_AAC length=200 units=ft
New Line.OH_262978_1_3 phases=1 bus1=DEV_263023_1_2.1 bus2=DEV_263023_1_3.1 linecode=OH_1/0_AAC length=200 units=ft
New Line.OH_262978_1_4 phases=1 bus1=DEV_263023_1_3.1 bus2=DEV_263023_1_4.1 linecode=OH_1/0_AAC length=200 units=ft
New Line.OH_262978_1_5 phases=1 bus1=DEV_263023_1_4.1 bus2=DEV_263023_1_5.1 linecode=OH_1/0_AAC length=200 units=ft
New Line.OH_262978_1_6 phases=1 bus1=DEV_263023_TSF12_1.1 bus2=DEV_263023_1_6.1 linecode=OH_1/0_AAC length=200 units=ft
New Line.OH_262978_1_7 phases=1 bus1=DEV_263023_1_6.1 bus2=DEV_263023_1_7.1 linecode=OH_1/0_AAC length=200 units=ft
New Line.OH_262978_1_8 phases=1 bus1=DEV_263023_1_7.1 bus2=DEV_263023_1_8.1 linecode=OH_1/0_AAC length=200 units=ft
New Line.OH_262978_2_1 phases=1 bus1=DEV_263023_TSF12_2.3 bus2=DEV_263023_2_1.3 linecode=OH_1/0_AAC length=200 units=ft
New Line.OH_262978_2_2 phases=1 bus1=DEV_263023_2_1.3 bus2=DEV_263023_2_2.3 linecode=OH_1/0_AAC length=200 units=ft
New Line.OH_262978_2_3 phases=1 bus1=DEV_263023_2_2.3 bus2=DEV_263023_2_3.3 linecode=OH_1/0_AAC length=200 units=ft
...
!New Line.OH_51048147_0_1 phases=1 bus1=DEV_51048144_TSF50_0.3 bus2=DEV_51048144_0_1.3 linecode=OH_1/0_AAC length=200 units=ft
!New Line.OH_51048147_0_2 phases=1 bus1=DEV_51048144_0_1.3 bus2=DEV_51048144_0_2.3 linecode=OH_1/0_AAC length=200 units=ft
New Line.OH_51053210_0_1 phases=1 bus1=DEV_51053211_TSF25_0.1 bus2=DEV_51053211_0_1.1 linecode=OH_1/0_AAC length=200 units=ft
New Line.OH_51053210_0_2 phases=1 bus1=DEV_51053211_0_1.1 bus2=DEV_51053211_0_2.1 linecode=OH_1/0_AAC length=200 units=ft
New Line.OH_51062690_1_1 phases=1 bus1=DEV_51062697_TSF12_1.1 bus2=DEV_51062697_1_1.1 linecode=OH_1/0_AAC length=200 units=ft
New Line.OH_51062690_2_1 phases=1 bus1=DEV_51062697_TSF12_2.3 bus2=DEV_51062697_2_1.3 linecode=OH_1/0_AAC length=200 units=ft
New Line.OH_51071975_0_1 phases=1 bus1=DEV_51071977_TSF25_0.3 bus2=DEV_51071977_0_1.3 linecode=OH_1/0_AAC length=200 units=ft
New Line.OH_51076573_0_1 phases=1 bus1=DEV_51076575_TSF25_0.1 bus2=DEV_51076575_0_1.1 linecode=OH_1/0_AAC length=200 units=ft
New Line.OH_51077887_0_1 phases=1 bus1=DEV_51077888_TSF25_0.3 bus2=DEV_51077888_0_1.3 linecode=OH_1/0_AAC length=200 units=ft
New Line.OH_51077887_0_2 phases=1 bus1=DEV_51077888_0_1.3 bus2=DEV_51077888_0_2.3 linecode=OH_1/0_AAC length=200 units=ft
...