ProjectFiles/HECO/DSSfiles/PVgens-PE-PER-NEW100.dss
!Pending	and	Pending-Review	PV	genrators														
New	PVSystem.BB_258064_1_5	bus1=DEV_258183_131.1	Phases=1	kV=0.24	kVA=7.92	irradiance=1	Pmpp=9.9	kvar=0	kvarlimit=	3.4848	%cutin=0.1	%cutout=0.1	yearly=m3pvmult	
New	PVSystem.BB_258067_1_5	bus1=DEV_258084_73.1	Phases=1	kV=0.24	kVA=3.2	irradiance=1	Pmpp=4	kvar=0	kvarlimit=	1.408	%cutin=0.1	%cutout=0.1	yearly=m3pvmult	
New	PVSystem.BB_258080_1_14	bus1=DEV_258181_25.1	Phases=1	kV=0.24	kVA=5.848	irradiance=1	Pmpp=7.31	kvar=0	kvarlimit=	2.57312	%cutin=0.1	%cutout=0.1	yearly=m3pvmult	
New	PVSystem.BB_258824_1_1	bus1=DEV_258823_13.1	Phases=1	kV=0.24	kVA=4.8	irradiance=1	Pmpp=6	kvar=0	kvarlimit=	2.112	%cutin=0.1	%cutout=0.1	yearly=m3pvmult	
New	PVSystem.BB_258899_1_9	bus1=DEV_258885_20.1	Phases=1	kV=0.24	kVA=7.28	irradiance=1	Pmpp=9.1	kvar=0	kvarlimit=	3.2032	%cutin=0.1	%cutout=0.1	yearly=m3pvmult	
New	PVSystem.BB_259031_1_5	bus1=DEV_259145_42.1	Phases=1	kV=0.24	kVA=7.88	irradiance=1	Pmpp=9.85	kvar=0	kvarlimit=	3.4672	%cutin=0.1	%cutout=0.1	yearly=m3pvmult	
New	PVSystem.BB_259033_1_2	bus1=DEV_259034_136.1	Phases=1	kV=0.24	kVA=12.64	irradiance=1	Pmpp=15.8	kvar=0	kvarlimit=	5.5616	%cutin=0.1	%cutout=0.1	yearly=m3pvmult	
New	PVSystem.BB_259037_1_6	bus1=DEV_259038_80.1	Phases=1	kV=0.24	kVA=2.304	irradiance=1	Pmpp=2.88	kvar=0	kvarlimit=	1.01376	%cutin=0.1	%cutout=0.1	yearly=m3pvmult	
New	PVSystem.BB_259041_1_5	bus1=DEV_259153_49.1	Phases=1	kV=0.24	kVA=1.92	irradiance=1	Pmpp=2.4	kvar=0	kvarlimit=	0.8448	%cutin=0.1	%cutout=0.1	yearly=m3pvmult	
New	PVSystem.BB_259041_1_12	bus1=DEV_259153_26.1	Phases=1	kV=0.24	kVA=2.304	irradiance=1	Pmpp=2.88	kvar=0	kvarlimit=	1.01376	%cutin=0.1	%cutout=0.1	yearly=m3pvmult	
New	PVSystem.BB_259160_1_6	bus1=DEV_259161_80.1	Phases=1	kV=0.24	kVA=3.84	irradiance=1	Pmpp=4.8	kvar=0	kvarlimit=	1.6896	%cutin=0.1	%cutout=0.1	yearly=m3pvmult	
New	PVSystem.BB_259166_1_5	bus1=DEV_259168_42.1	Phases=1	kV=0.24	kVA=4.416	irradiance=1	Pmpp=5.52	kvar=0	kvarlimit=	1.94304	%cutin=0.1	%cutout=0.1	yearly=m3pvmult	
New	PVSystem.BB_259166_1_7	bus1=DEV_259168_44.1	Phases=1	kV=0.24	kVA=2.24	irradiance=1	Pmpp=2.8	kvar=0	kvarlimit=	0.9856	%cutin=0.1	%cutout=0.1	yearly=m3pvmult	
New	PVSystem.BB_259171_1_8	bus1=DEV_259172_70.1	Phases=1	kV=0.24	kVA=5.376	irradiance=1	Pmpp=6.72	kvar=0	kvarlimit=	2.36544	%cutin=0.1	%cutout=0.1	yearly=m3pvmult	
New	PVSystem.BB_259176_1_2	bus1=DEV_259178_136.1	Phases=1	kV=0.24	kVA=2.928	irradiance=1	Pmpp=3.66	kvar=0	kvarlimit=	1.28832	%cutin=0.1	%cutout=0.1	yearly=m3pvmult	
New	PVSystem.BB_263625_1_1	bus1=DEV_263913_18.1	Phases=1	kV=0.24	kVA=3.2	irradiance=1	Pmpp=4	kvar=0	kvarlimit=	1.408	%cutin=0.1	%cutout=0.1	yearly=m3pvmult	
New	PVSystem.BB_263625_1_8	bus1=DEV_263913_22.1	Phases=1	kV=0.24	kVA=4.88	irradiance=1	Pmpp=6.1	kvar=0	kvarlimit=	2.1472	%cutin=0.1	%cutout=0.1	yearly=m3pvmult	
New	PVSystem.BB_263629_1_1	bus1=DEV_263905_156.1	Phases=1	kV=0.24	kVA=6.104	irradiance=1	Pmpp=7.63	kvar=0	kvarlimit=	2.68576	%cutin=0.1	%cutout=0.1	yearly=m3pvmult	
New	PVSystem.BB_263629_1_4	bus1=DEV_263905_154.1	Phases=1	kV=0.24	kVA=3.24	irradiance=1	Pmpp=4.05	kvar=0	kvarlimit=	1.4256	%cutin=0.1	%cutout=0.1	yearly=m3pvmult	
New	PVSystem.BB_263786_1_8	bus1=DEV_263881_235.3	Phases=1	kV=0.24	kVA=4.8	irradiance=1	Pmpp=6	kvar=0	kvarlimit=	2.112	%cutin=0.1	%cutout=0.1	yearly=m3pvmult	
New	PVSystem.BB_263789_1_2	bus1=DEV_263879_147.3	Phases=1	kV=0.24	kVA=3.96	irradiance=1	Pmpp=4.95	kvar=0	kvarlimit=	1.7424	%cutin=0.1	%cutout=0.1	yearly=m3pvmult	
New	PVSystem.BB_263789_1_3	bus1=DEV_263879_145.3	Phases=1	kV=0.24	kVA=7.84	irradiance=1	Pmpp=9.8	kvar=0	kvarlimit=	3.4496	%cutin=0.1	%cutout=0.1	yearly=m3pvmult	
New	PVSystem.BB_263793_1_1	bus1=DEV_263717_775.1	Phases=1	kV=0.24	kVA=2.304	irradiance=1	Pmpp=2.88	kvar=0	kvarlimit=	1.01376	%cutin=0.1	%cutout=0.1	yearly=m3pvmult	
New	PVSystem.BB_263794_1_11	bus1=DEV_263903_258.1	Phases=1	kV=0.24	kVA=3.08	irradiance=1	Pmpp=3.85	kvar=0	kvarlimit=	1.3552	%cutin=0.1	%cutout=0.1	yearly=m3pvmult	
New	PVSystem.BB_263795_1_8	bus1=DEV_263907_143.1	Phases=1	kV=0.24	kVA=2.752	irradiance=1	Pmpp=3.44	kvar=0	kvarlimit=	1.21088	%cutin=0.1	%cutout=0.1	yearly=m3pvmult	
New	PVSystem.BB_263795_1_9	bus1=DEV_263907_251.1	Phases=1	kV=0.24	kVA=3.032	irradiance=1	Pmpp=3.79	kvar=0	kvarlimit=	1.33408	%cutin=0.1	%cutout=0.1	yearly=m3pvmult	
New	PVSystem.BB_263795_1_12	bus1=DEV_263907_254.1	Phases=1	kV=0.24	kVA=3.04	irradiance=1	Pmpp=3.8	kvar=0	kvarlimit=	1.3376	%cutin=0.1	%cutout=0.1	yearly=m3pvmult	
New	PVSystem.BB_263796_1_2	bus1=DEV_263720_246.2	Phases=1	kV=0.24	kVA=2.4	irradiance=1	Pmpp=3	kvar=0	kvarlimit=	1.056	%cutin=0.1	%cutout=0.1	yearly=m3pvmult	
New	PVSystem.BB_263796_1_9	bus1=DEV_263720_104.2	Phases=1	kV=0.24	kVA=7.28	irradiance=1	Pmpp=9.1	kvar=0	kvarlimit=	3.2032	%cutin=0.1	%cutout=0.1	yearly=m3pvmult	
New	PVSystem.BB_263800_1_1	bus1=DEV_263899_148.2	Phases=1	kV=0.24	kVA=7.28	irradiance=1	Pmpp=9.1	kvar=0	kvarlimit=	3.2032	%cutin=0.1	%cutout=0.1	yearly=m3pvmult	
...